**.subckt buffer_pex VBIAS VDD GND OUT_P OUT_N IN_P IN_N
*.iopin VBIAS
*.iopin VDD
*.iopin GND
*.opin OUT_P
*.opin OUT_N
*.ipin IN_P
*.ipin IN_N
**** begin user architecture code


* NGSPICE file created from buffer_pex.ext - technology: sky130B

.subckt buffer_pex VDD OUT_P OUT_N IN_P IN_N VBIAS GND
X0 GND.t229 GND.t226 GND.t228 GND.t227 sky130_fd_pr__nfet_01v8_lvt ad=0p pd=0u as=0p ps=0u
+ w=5.05e+06u l=150000u
X1 GND GND.t221 GND GND.t222 sky130_fd_pr__nfet_01v8_lvt ad=1.01808e+14p pd=7.6752e+08u as=0p ps=0u
+ w=5.05e+06u l=150000u
X2 GND GND.t216 GND GND.t217 sky130_fd_pr__nfet_01v8_lvt ad=0p pd=0u as=0p ps=0u w=5.05e+06u
+ l=150000u
X3 GND.t45 VBIAS.t8 buffer_input_0/buffer_input_base_0/rf_nfet_01v8_lvt_aM04W5p00L0p15_1/SOURCE.t47
+ GND.t44 sky130_fd_pr__nfet_01v8_lvt ad=0p pd=0u as=0p ps=0u w=5.05e+06u l=150000u
X4 buffer_input_0/buffer_input_base_0/rf_nfet_01v8_lvt_aM04W5p00L0p15_1/SOURCE.t46 VBIAS.t9 GND.t31
+ GND.t30 sky130_fd_pr__nfet_01v8_lvt ad=0p pd=0u as=0p ps=0u w=5.05e+06u l=150000u
X5 GND GND.t211 GND GND.t212 sky130_fd_pr__nfet_01v8_lvt ad=0p pd=0u as=0p ps=0u w=5.05e+06u
+ l=150000u
X6 GND.t210 GND.t207 GND.t209 GND.t208 sky130_fd_pr__nfet_01v8_lvt ad=0p pd=0u as=0p ps=0u
+ w=5.05e+06u l=150000u
X7 GND.t33 VBIAS.t10 buffer_input_0/buffer_input_base_0/rf_nfet_01v8_lvt_aM04W5p00L0p15_1/SOURCE.t45
+ GND.t32 sky130_fd_pr__nfet_01v8_lvt ad=0p pd=0u as=0p ps=0u w=5.05e+06u l=150000u
X8 GND.t206 GND.t203 GND.t205 GND.t204 sky130_fd_pr__nfet_01v8_lvt ad=0p pd=0u as=0p ps=0u
+ w=5.05e+06u l=150000u
X9 GND GND.t198 GND GND.t199 sky130_fd_pr__nfet_01v8_lvt ad=0p pd=0u as=0p ps=0u w=5.05e+06u
+ l=150000u
X10 GND GND.t193 GND GND.t194 sky130_fd_pr__nfet_01v8_lvt ad=0p pd=0u as=0p ps=0u w=5.05e+06u
+ l=150000u
X11 GND.t192 GND.t189 GND.t191 GND.t190 sky130_fd_pr__nfet_01v8_lvt ad=0p pd=0u as=0p ps=0u
+ w=5.05e+06u l=150000u
X12 buffer_input_0/buffer_input_base_0/rf_nfet_01v8_lvt_aM04W5p00L0p15_1/SOURCE.t44 VBIAS.t11
+ GND.t35 GND.t34 sky130_fd_pr__nfet_01v8_lvt ad=0p pd=0u as=0p ps=0u w=5.05e+06u l=150000u
X13 buffer_input_0/buffer_input_base_0/rf_nfet_01v8_lvt_aM04W5p00L0p15_1/SOURCE.t0 IN_N.t0 OUT_N.t7
+ GND.t6 sky130_fd_pr__nfet_01v8_lvt ad=0p pd=0u as=0p ps=0u w=5.05e+06u l=150000u
X14 GND.t43 VBIAS.t6 VBIAS.t7 GND.t42 sky130_fd_pr__nfet_01v8_lvt ad=0p pd=0u as=0p ps=0u
+ w=5.05e+06u l=150000u
X15 buffer_input_0/buffer_input_base_0/rf_nfet_01v8_lvt_aM04W5p00L0p15_1/SOURCE.t43 VBIAS.t12
+ GND.t37 GND.t36 sky130_fd_pr__nfet_01v8_lvt ad=0p pd=0u as=0p ps=0u w=5.05e+06u l=150000u
X16 GND.t39 VBIAS.t13
+ buffer_input_0/buffer_input_base_0/rf_nfet_01v8_lvt_aM04W5p00L0p15_1/SOURCE.t42 GND.t38 sky130_fd_pr__nfet_01v8_lvt ad=0p pd=0u as=0p ps=0u w=5.05e+06u l=150000u
X17 VBIAS.t5 VBIAS.t4 GND.t258 GND.t257 sky130_fd_pr__nfet_01v8_lvt ad=0p pd=0u as=0p ps=0u
+ w=5.05e+06u l=150000u
X18 GND GND.t184 GND GND.t185 sky130_fd_pr__nfet_01v8_lvt ad=0p pd=0u as=0p ps=0u w=5.05e+06u
+ l=150000u
X19 GND GND.t179 GND GND.t180 sky130_fd_pr__nfet_01v8_lvt ad=0p pd=0u as=0p ps=0u w=5.05e+06u
+ l=150000u
X20 GND.t41 VBIAS.t14
+ buffer_input_0/buffer_input_base_0/rf_nfet_01v8_lvt_aM04W5p00L0p15_1/SOURCE.t41 GND.t40 sky130_fd_pr__nfet_01v8_lvt ad=0p pd=0u as=0p ps=0u w=5.05e+06u l=150000u
X21 GND.t178 GND.t175 GND.t177 GND.t176 sky130_fd_pr__nfet_01v8_lvt ad=0p pd=0u as=0p ps=0u
+ w=5.05e+06u l=150000u
X22 OUT_P.t7 IN_P.t0 buffer_input_0/buffer_input_base_0/rf_nfet_01v8_lvt_aM04W5p00L0p15_1/SOURCE.t11
+ GND.t230 sky130_fd_pr__nfet_01v8_lvt ad=0p pd=0u as=0p ps=0u w=5.05e+06u l=150000u
X23 buffer_input_0/buffer_input_base_0/rf_nfet_01v8_lvt_aM04W5p00L0p15_1/SOURCE.t3 IN_P.t1 OUT_P.t6
+ GND.t9 sky130_fd_pr__nfet_01v8_lvt ad=0p pd=0u as=0p ps=0u w=5.05e+06u l=150000u
X24 GND.t174 GND.t171 GND.t173 GND.t172 sky130_fd_pr__nfet_01v8_lvt ad=0p pd=0u as=0p ps=0u
+ w=5.05e+06u l=150000u
X25 GND.t25 VBIAS.t15
+ buffer_input_0/buffer_input_base_0/rf_nfet_01v8_lvt_aM04W5p00L0p15_1/SOURCE.t40 GND.t24 sky130_fd_pr__nfet_01v8_lvt ad=0p pd=0u as=0p ps=0u w=5.05e+06u l=150000u
X26 buffer_input_0/buffer_input_base_0/rf_nfet_01v8_lvt_aM04W5p00L0p15_1/SOURCE.t39 VBIAS.t16
+ GND.t27 GND.t26 sky130_fd_pr__nfet_01v8_lvt ad=0p pd=0u as=0p ps=0u w=5.05e+06u l=150000u
X27 GND.t29 VBIAS.t17
+ buffer_input_0/buffer_input_base_0/rf_nfet_01v8_lvt_aM04W5p00L0p15_1/SOURCE.t38 GND.t28 sky130_fd_pr__nfet_01v8_lvt ad=0p pd=0u as=0p ps=0u w=5.05e+06u l=150000u
X28 OUT_P.t5 IN_P.t2 buffer_input_0/buffer_input_base_0/rf_nfet_01v8_lvt_aM04W5p00L0p15_1/SOURCE.t4
+ GND.t10 sky130_fd_pr__nfet_01v8_lvt ad=0p pd=0u as=0p ps=0u w=5.05e+06u l=150000u
X29 buffer_input_0/buffer_input_base_0/rf_nfet_01v8_lvt_aM04W5p00L0p15_1/SOURCE.t37 VBIAS.t18
+ GND.t47 GND.t46 sky130_fd_pr__nfet_01v8_lvt ad=0p pd=0u as=0p ps=0u w=5.05e+06u l=150000u
X30 GND.t49 VBIAS.t19
+ buffer_input_0/buffer_input_base_0/rf_nfet_01v8_lvt_aM04W5p00L0p15_1/SOURCE.t36 GND.t48 sky130_fd_pr__nfet_01v8_lvt ad=0p pd=0u as=0p ps=0u w=5.05e+06u l=150000u
X31 buffer_input_0/buffer_input_base_0/rf_nfet_01v8_lvt_aM04W5p00L0p15_1/SOURCE.t35 VBIAS.t20
+ GND.t51 GND.t50 sky130_fd_pr__nfet_01v8_lvt ad=0p pd=0u as=0p ps=0u w=5.05e+06u l=150000u
X32 GND.t13 VBIAS.t21
+ buffer_input_0/buffer_input_base_0/rf_nfet_01v8_lvt_aM04W5p00L0p15_1/SOURCE.t34 GND.t12 sky130_fd_pr__nfet_01v8_lvt ad=0p pd=0u as=0p ps=0u w=5.05e+06u l=150000u
X33 GND GND.t166 GND GND.t167 sky130_fd_pr__nfet_01v8_lvt ad=0p pd=0u as=0p ps=0u w=5.05e+06u
+ l=150000u
X34 GND.t15 VBIAS.t22
+ buffer_input_0/buffer_input_base_0/rf_nfet_01v8_lvt_aM04W5p00L0p15_1/SOURCE.t33 GND.t14 sky130_fd_pr__nfet_01v8_lvt ad=0p pd=0u as=0p ps=0u w=5.05e+06u l=150000u
X35 GND GND.t161 GND GND.t162 sky130_fd_pr__nfet_01v8_lvt ad=0p pd=0u as=0p ps=0u w=5.05e+06u
+ l=150000u
X36 OUT_P.t4 IN_P.t3 buffer_input_0/buffer_input_base_0/rf_nfet_01v8_lvt_aM04W5p00L0p15_1/SOURCE.t10
+ GND.t58 sky130_fd_pr__nfet_01v8_lvt ad=0p pd=0u as=0p ps=0u w=5.05e+06u l=150000u
X37 GND.t160 GND.t157 GND.t159 GND.t158 sky130_fd_pr__nfet_01v8_lvt ad=0p pd=0u as=0p ps=0u
+ w=5.05e+06u l=150000u
X38 buffer_input_0/buffer_input_base_0/rf_nfet_01v8_lvt_aM04W5p00L0p15_1/SOURCE.t32 VBIAS.t23
+ GND.t17 GND.t16 sky130_fd_pr__nfet_01v8_lvt ad=0p pd=0u as=0p ps=0u w=5.05e+06u l=150000u
X39 GND.t19 VBIAS.t24
+ buffer_input_0/buffer_input_base_0/rf_nfet_01v8_lvt_aM04W5p00L0p15_1/SOURCE.t31 GND.t18 sky130_fd_pr__nfet_01v8_lvt ad=0p pd=0u as=0p ps=0u w=5.05e+06u l=150000u
X40 GND GND.t152 GND GND.t153 sky130_fd_pr__nfet_01v8_lvt ad=0p pd=0u as=0p ps=0u w=5.05e+06u
+ l=150000u
X41 buffer_input_0/buffer_input_base_0/rf_nfet_01v8_lvt_aM04W5p00L0p15_1/SOURCE.t30 VBIAS.t25
+ GND.t21 GND.t20 sky130_fd_pr__nfet_01v8_lvt ad=0p pd=0u as=0p ps=0u w=5.05e+06u l=150000u
X42 GND.t23 VBIAS.t26
+ buffer_input_0/buffer_input_base_0/rf_nfet_01v8_lvt_aM04W5p00L0p15_1/SOURCE.t29 GND.t22 sky130_fd_pr__nfet_01v8_lvt ad=0p pd=0u as=0p ps=0u w=5.05e+06u l=150000u
X43 GND.t1 VBIAS.t27 buffer_input_0/buffer_input_base_0/rf_nfet_01v8_lvt_aM04W5p00L0p15_1/SOURCE.t28
+ GND.t0 sky130_fd_pr__nfet_01v8_lvt ad=0p pd=0u as=0p ps=0u w=5.05e+06u l=150000u
X44 GND.t255 VBIAS.t2 VBIAS.t3 GND.t254 sky130_fd_pr__nfet_01v8_lvt ad=0p pd=0u as=0p ps=0u
+ w=5.05e+06u l=150000u
X45 buffer_input_0/buffer_input_base_0/rf_nfet_01v8_lvt_aM04W5p00L0p15_1/SOURCE.t2 IN_P.t4 OUT_P.t3
+ GND.t8 sky130_fd_pr__nfet_01v8_lvt ad=0p pd=0u as=0p ps=0u w=5.05e+06u l=150000u
X46 GND GND.t147 GND GND.t148 sky130_fd_pr__nfet_01v8_lvt ad=0p pd=0u as=0p ps=0u w=5.05e+06u
+ l=150000u
X47 GND GND.t142 GND GND.t143 sky130_fd_pr__nfet_01v8_lvt ad=0p pd=0u as=0p ps=0u w=5.05e+06u
+ l=150000u
X48 GND GND.t137 GND GND.t138 sky130_fd_pr__nfet_01v8_lvt ad=0p pd=0u as=0p ps=0u w=5.05e+06u
+ l=150000u
X49 GND GND.t132 GND GND.t133 sky130_fd_pr__nfet_01v8_lvt ad=0p pd=0u as=0p ps=0u w=5.05e+06u
+ l=150000u
X50 OUT_N.t6 IN_N.t1 buffer_input_0/buffer_input_base_0/rf_nfet_01v8_lvt_aM04W5p00L0p15_1/SOURCE.t5
+ GND.t11 sky130_fd_pr__nfet_01v8_lvt ad=0p pd=0u as=0p ps=0u w=5.05e+06u l=150000u
X51 OUT_P.t2 IN_P.t5 buffer_input_0/buffer_input_base_0/rf_nfet_01v8_lvt_aM04W5p00L0p15_1/SOURCE.t9
+ GND.t57 sky130_fd_pr__nfet_01v8_lvt ad=0p pd=0u as=0p ps=0u w=5.05e+06u l=150000u
X52 GND GND.t127 GND GND.t128 sky130_fd_pr__nfet_01v8_lvt ad=0p pd=0u as=0p ps=0u w=5.05e+06u
+ l=150000u
X53 GND.t3 VBIAS.t28 buffer_input_0/buffer_input_base_0/rf_nfet_01v8_lvt_aM04W5p00L0p15_1/SOURCE.t27
+ GND.t2 sky130_fd_pr__nfet_01v8_lvt ad=0p pd=0u as=0p ps=0u w=5.05e+06u l=150000u
X54 GND GND.t122 GND GND.t123 sky130_fd_pr__nfet_01v8_lvt ad=0p pd=0u as=0p ps=0u w=5.05e+06u
+ l=150000u
X55 OUT_N.t5 IN_N.t2 buffer_input_0/buffer_input_base_0/rf_nfet_01v8_lvt_aM04W5p00L0p15_1/SOURCE.t15
+ GND.t256 sky130_fd_pr__nfet_01v8_lvt ad=0p pd=0u as=0p ps=0u w=5.05e+06u l=150000u
X56 buffer_input_0/buffer_input_base_0/rf_nfet_01v8_lvt_aM04W5p00L0p15_1/SOURCE.t12 IN_N.t3 OUT_N.t4
+ GND.t231 sky130_fd_pr__nfet_01v8_lvt ad=0p pd=0u as=0p ps=0u w=5.05e+06u l=150000u
X57 GND GND.t117 GND GND.t118 sky130_fd_pr__nfet_01v8_lvt ad=0p pd=0u as=0p ps=0u w=5.05e+06u
+ l=150000u
X58 buffer_input_0/buffer_input_base_0/rf_nfet_01v8_lvt_aM04W5p00L0p15_1/SOURCE.t6 IN_P.t6 OUT_P.t1
+ GND.t52 sky130_fd_pr__nfet_01v8_lvt ad=0p pd=0u as=0p ps=0u w=5.05e+06u l=150000u
X59 GND.t116 GND.t113 GND.t115 GND.t114 sky130_fd_pr__nfet_01v8_lvt ad=0p pd=0u as=0p ps=0u
+ w=5.05e+06u l=150000u
X60 GND.t5 VBIAS.t29 buffer_input_0/buffer_input_base_0/rf_nfet_01v8_lvt_aM04W5p00L0p15_1/SOURCE.t26
+ GND.t4 sky130_fd_pr__nfet_01v8_lvt ad=0p pd=0u as=0p ps=0u w=5.05e+06u l=150000u
X61 GND GND.t108 GND GND.t109 sky130_fd_pr__nfet_01v8_lvt ad=0p pd=0u as=0p ps=0u w=5.05e+06u
+ l=150000u
X62 GND GND.t103 GND GND.t104 sky130_fd_pr__nfet_01v8_lvt ad=0p pd=0u as=0p ps=0u w=5.05e+06u
+ l=150000u
X63 buffer_input_0/buffer_input_base_0/rf_nfet_01v8_lvt_aM04W5p00L0p15_1/SOURCE.t25 VBIAS.t30
+ GND.t246 GND.t245 sky130_fd_pr__nfet_01v8_lvt ad=0p pd=0u as=0p ps=0u w=5.05e+06u l=150000u
X64 GND.t248 VBIAS.t31
+ buffer_input_0/buffer_input_base_0/rf_nfet_01v8_lvt_aM04W5p00L0p15_1/SOURCE.t24 GND.t247 sky130_fd_pr__nfet_01v8_lvt ad=0p pd=0u as=0p ps=0u w=5.05e+06u l=150000u
X65 buffer_input_0/buffer_input_base_0/rf_nfet_01v8_lvt_aM04W5p00L0p15_1/SOURCE.t23 VBIAS.t32
+ GND.t250 GND.t249 sky130_fd_pr__nfet_01v8_lvt ad=0p pd=0u as=0p ps=0u w=5.05e+06u l=150000u
R0 OUT_N VDD sky130_fd_pr__res_generic_po w=3.5e+06u l=3.5e+06u
X66 GND GND.t98 GND GND.t99 sky130_fd_pr__nfet_01v8_lvt ad=0p pd=0u as=0p ps=0u w=5.05e+06u
+ l=150000u
X67 buffer_input_0/buffer_input_base_0/rf_nfet_01v8_lvt_aM04W5p00L0p15_1/SOURCE.t22 VBIAS.t33
+ GND.t240 GND.t239 sky130_fd_pr__nfet_01v8_lvt ad=0p pd=0u as=0p ps=0u w=5.05e+06u l=150000u
X68 GND GND.t93 GND GND.t94 sky130_fd_pr__nfet_01v8_lvt ad=0p pd=0u as=0p ps=0u w=5.05e+06u
+ l=150000u
X69 buffer_input_0/buffer_input_base_0/rf_nfet_01v8_lvt_aM04W5p00L0p15_1/SOURCE.t13 IN_N.t4 OUT_N.t3
+ GND.t232 sky130_fd_pr__nfet_01v8_lvt ad=0p pd=0u as=0p ps=0u w=5.05e+06u l=150000u
R1 VDD OUT_P sky130_fd_pr__res_generic_po w=3.5e+06u l=3.5e+06u
X70 GND GND.t88 GND GND.t89 sky130_fd_pr__nfet_01v8_lvt ad=0p pd=0u as=0p ps=0u w=5.05e+06u
+ l=150000u
X71 buffer_input_0/buffer_input_base_0/rf_nfet_01v8_lvt_aM04W5p00L0p15_1/SOURCE.t21 VBIAS.t34
+ GND.t242 GND.t241 sky130_fd_pr__nfet_01v8_lvt ad=0p pd=0u as=0p ps=0u w=5.05e+06u l=150000u
X72 buffer_input_0/buffer_input_base_0/rf_nfet_01v8_lvt_aM04W5p00L0p15_1/SOURCE.t20 VBIAS.t35
+ GND.t244 GND.t243 sky130_fd_pr__nfet_01v8_lvt ad=0p pd=0u as=0p ps=0u w=5.05e+06u l=150000u
X73 GND.t234 VBIAS.t36
+ buffer_input_0/buffer_input_base_0/rf_nfet_01v8_lvt_aM04W5p00L0p15_1/SOURCE.t19 GND.t233 sky130_fd_pr__nfet_01v8_lvt ad=0p pd=0u as=0p ps=0u w=5.05e+06u l=150000u
X74 buffer_input_0/buffer_input_base_0/rf_nfet_01v8_lvt_aM04W5p00L0p15_1/SOURCE.t7 IN_P.t7 OUT_P.t0
+ GND.t53 sky130_fd_pr__nfet_01v8_lvt ad=0p pd=0u as=0p ps=0u w=5.05e+06u l=150000u
X75 buffer_input_0/buffer_input_base_0/rf_nfet_01v8_lvt_aM04W5p00L0p15_1/SOURCE.t18 VBIAS.t37
+ GND.t236 GND.t235 sky130_fd_pr__nfet_01v8_lvt ad=0p pd=0u as=0p ps=0u w=5.05e+06u l=150000u
X76 VBIAS.t1 VBIAS.t0 GND.t253 GND.t252 sky130_fd_pr__nfet_01v8_lvt ad=0p pd=0u as=0p ps=0u
+ w=5.05e+06u l=150000u
X77 GND GND.t83 GND GND.t84 sky130_fd_pr__nfet_01v8_lvt ad=0p pd=0u as=0p ps=0u w=5.05e+06u
+ l=150000u
X78 buffer_input_0/buffer_input_base_0/rf_nfet_01v8_lvt_aM04W5p00L0p15_1/SOURCE.t1 IN_N.t5 OUT_N.t2
+ GND.t7 sky130_fd_pr__nfet_01v8_lvt ad=0p pd=0u as=0p ps=0u w=5.05e+06u l=150000u
X79 GND GND.t78 GND GND.t79 sky130_fd_pr__nfet_01v8_lvt ad=0p pd=0u as=0p ps=0u w=5.05e+06u
+ l=150000u
X80 buffer_input_0/buffer_input_base_0/rf_nfet_01v8_lvt_aM04W5p00L0p15_1/SOURCE.t17 VBIAS.t38
+ GND.t238 GND.t237 sky130_fd_pr__nfet_01v8_lvt ad=0p pd=0u as=0p ps=0u w=5.05e+06u l=150000u
X81 buffer_input_0/buffer_input_base_0/rf_nfet_01v8_lvt_aM04W5p00L0p15_1/SOURCE.t16 VBIAS.t39
+ GND.t55 GND.t54 sky130_fd_pr__nfet_01v8_lvt ad=0p pd=0u as=0p ps=0u w=5.05e+06u l=150000u
X82 GND GND.t73 GND GND.t74 sky130_fd_pr__nfet_01v8_lvt ad=0p pd=0u as=0p ps=0u w=5.05e+06u
+ l=150000u
X83 GND.t72 GND.t69 GND.t71 GND.t70 sky130_fd_pr__nfet_01v8_lvt ad=0p pd=0u as=0p ps=0u w=5.05e+06u
+ l=150000u
X84 OUT_N.t1 IN_N.t6 buffer_input_0/buffer_input_base_0/rf_nfet_01v8_lvt_aM04W5p00L0p15_1/SOURCE.t14
+ GND.t251 sky130_fd_pr__nfet_01v8_lvt ad=0p pd=0u as=0p ps=0u w=5.05e+06u l=150000u
X85 OUT_N.t0 IN_N.t7 buffer_input_0/buffer_input_base_0/rf_nfet_01v8_lvt_aM04W5p00L0p15_1/SOURCE.t8
+ GND.t56 sky130_fd_pr__nfet_01v8_lvt ad=0p pd=0u as=0p ps=0u w=5.05e+06u l=150000u
X86 GND GND.t64 GND GND.t65 sky130_fd_pr__nfet_01v8_lvt ad=0p pd=0u as=0p ps=0u w=5.05e+06u
+ l=150000u
X87 GND GND.t59 GND GND.t60 sky130_fd_pr__nfet_01v8_lvt ad=0p pd=0u as=0p ps=0u w=5.05e+06u
+ l=150000u
C0 IN_N OUT_N 3.36fF
C1 OUT_P VDD 1.41fF
C2 buffer_input_0/buffer_input_base_0/rf_nfet_01v8_lvt_aM04W5p00L0p15_1/SOURCE VBIAS 25.10fF
C3 IN_P m4_2257_876# 0.00fF
C4 buffer_input_0/buffer_input_base_0/rf_nfet_01v8_lvt_aM04W5p00L0p15_1/SOURCE IN_N 5.63fF
C5 IN_P OUT_N 0.41fF
C6 OUT_P m4_2257_876# 0.04fF
C7 IN_N VBIAS 0.20fF
C8 OUT_N VDD 0.83fF
C9 OUT_P OUT_N 7.61fF
C10 IN_P buffer_input_0/buffer_input_base_0/rf_nfet_01v8_lvt_aM04W5p00L0p15_1/SOURCE 4.53fF
C11 IN_P VBIAS 0.46fF
C12 buffer_input_0/buffer_input_base_0/rf_nfet_01v8_lvt_aM04W5p00L0p15_1/SOURCE VDD 1.13fF
C13 OUT_N m4_2257_876# 0.21fF
C14 buffer_input_0/buffer_input_base_0/rf_nfet_01v8_lvt_aM04W5p00L0p15_1/SOURCE OUT_P 17.63fF
C15 IN_P IN_N 6.75fF
C16 OUT_P VBIAS 0.69fF
C17 IN_N VDD 0.31fF
C18 buffer_input_0/buffer_input_base_0/rf_nfet_01v8_lvt_aM04W5p00L0p15_1/SOURCE m4_2257_876# 0.40fF
C19 OUT_P IN_N 1.50fF
C20 VBIAS m4_2257_876# 0.08fF
C21 buffer_input_0/buffer_input_base_0/rf_nfet_01v8_lvt_aM04W5p00L0p15_1/SOURCE OUT_N 19.70fF
C22 IN_P VDD 0.11fF
C23 IN_N m4_2257_876# 0.03fF
C24 OUT_N VBIAS 0.59fF
C25 IN_P OUT_P 4.08fF
R2 GND.n14467 GND.t88 846.712
R3 GND.n15309 GND.t152 846.712
R4 GND.n15289 GND.t189 846.712
R5 GND.n14725 GND.t166 846.712
R6 GND.n15742 GND.t78 846.712
R7 GND.n15731 GND.t127 846.712
R8 GND.n15721 GND.t171 846.712
R9 GND.n15755 GND.t142 846.712
R10 GND.n2661 GND.t83 846.712
R11 GND.n4910 GND.t117 846.712
R12 GND.n1938 GND.t175 846.712
R13 GND.n2634 GND.t184 846.712
R14 GND.n7187 GND.t122 846.712
R15 GND.n7176 GND.t147 846.712
R16 GND.n7166 GND.t157 846.712
R17 GND.n6579 GND.t108 846.712
R18 GND.n10893 GND.t59 846.712
R19 GND.n10882 GND.t179 846.712
R20 GND.n12530 GND.t132 846.712
R21 GND.n10721 GND.t69 846.712
R22 GND.n13534 GND.t216 846.712
R23 GND.n13523 GND.t198 846.712
R24 GND.n13513 GND.t64 846.712
R25 GND.n11437 GND.t226 846.712
R26 GND.n6035 GND.t73 846.712
R27 GND.n6044 GND.t103 846.712
R28 GND.n6114 GND.t113 846.712
R29 GND.n6520 GND.t193 846.712
R30 GND.n9267 GND.t98 846.712
R31 GND.n9284 GND.t161 846.712
R32 GND.n9412 GND.t207 846.712
R33 GND.n8699 GND.t221 846.712
R34 GND.n3371 GND.t93 846.712
R35 GND.n3388 GND.t137 846.712
R36 GND.n1922 GND.t203 846.712
R37 GND.n3359 GND.t211 846.712
R38 GND.n14746 GND.t167 638.041
R39 GND.n15116 GND.t190 638.041
R40 GND.n3341 GND.t212 638.041
R41 GND.n4930 GND.t204 638.041
R42 GND.n3141 GND.t185 638.041
R43 GND.n4584 GND.t176 638.041
R44 GND.n10565 GND.t143 638.041
R45 GND.n15713 GND.t172 638.041
R46 GND.n7210 GND.t109 638.041
R47 GND.n7151 GND.t158 638.041
R48 GND.n6170 GND.t194 638.041
R49 GND.n7982 GND.t114 638.041
R50 GND.n13342 GND.t65 638.041
R51 GND.n11153 GND.t227 638.041
R52 GND.n12521 GND.t133 638.041
R53 GND.n13560 GND.t70 638.041
R54 GND.n11810 GND.t6 638.041
R55 GND.n12915 GND.t256 638.041
R56 GND.n12088 GND.t8 638.041
R57 GND.n13188 GND.t230 638.041
R58 GND.n7955 GND.t53 638.041
R59 GND.n12472 GND.t10 638.041
R60 GND.n7683 GND.t232 638.041
R61 GND.n12192 GND.t11 638.041
R62 GND.n5784 GND.t40 638.041
R63 GND.n8935 GND.t26 638.041
R64 GND.n1228 GND.t14 638.041
R65 GND.n9636 GND.t16 638.041
R66 GND.n1165 GND.t38 638.041
R67 GND.n15936 GND.t20 638.041
R68 GND.n882 GND.t44 638.041
R69 GND.n16224 GND.t50 638.041
R70 GND.n1520 GND.t24 638.041
R71 GND.n9924 GND.t46 638.041
R72 GND.n8713 GND.t42 638.041
R73 GND.n10144 GND.t257 638.041
R74 GND.n8414 GND.t222 638.041
R75 GND.n9970 GND.t208 638.041
R76 GND.n5501 GND.t32 638.041
R77 GND.n9223 GND.t34 638.041
R78 GND.n3664 GND.t28 638.041
R79 GND.n4242 GND.t30 638.041
R80 GND.n3946 GND.t18 638.041
R81 GND.n4531 GND.t36 638.041
R82 GND.t167 GND.t89 356.308
R83 GND.t190 GND.t153 356.308
R84 GND.t212 GND.t94 356.308
R85 GND.t204 GND.t138 356.308
R86 GND.t185 GND.t84 356.308
R87 GND.t176 GND.t118 356.308
R88 GND.t143 GND.t79 356.308
R89 GND.t172 GND.t128 356.308
R90 GND.t109 GND.t123 356.308
R91 GND.t158 GND.t148 356.308
R92 GND.t194 GND.t74 356.308
R93 GND.t114 GND.t104 356.308
R94 GND.t65 GND.t199 356.308
R95 GND.t227 GND.t217 356.308
R96 GND.t133 GND.t180 356.308
R97 GND.t70 GND.t60 356.308
R98 GND.t6 GND.t251 356.308
R99 GND.t256 GND.t231 356.308
R100 GND.t8 GND.t58 356.308
R101 GND.t230 GND.t52 356.308
R102 GND.t53 GND.t57 356.308
R103 GND.t10 GND.t9 356.308
R104 GND.t232 GND.t56 356.308
R105 GND.t11 GND.t7 356.308
R106 GND.t40 GND.t54 356.308
R107 GND.t26 GND.t4 356.308
R108 GND.t14 GND.t241 356.308
R109 GND.t16 GND.t0 356.308
R110 GND.t38 GND.t237 356.308
R111 GND.t20 GND.t22 356.308
R112 GND.t44 GND.t239 356.308
R113 GND.t50 GND.t12 356.308
R114 GND.t24 GND.t245 356.308
R115 GND.t46 GND.t48 356.308
R116 GND.t42 GND.t252 356.308
R117 GND.t257 GND.t254 356.308
R118 GND.t222 GND.t99 356.308
R119 GND.t208 GND.t162 356.308
R120 GND.t32 GND.t243 356.308
R121 GND.t34 GND.t2 356.308
R122 GND.t28 GND.t249 356.308
R123 GND.t30 GND.t247 356.308
R124 GND.t18 GND.t235 356.308
R125 GND.t36 GND.t233 356.308
R126 GND.n4163 GND.n4162 352.212
R127 GND.n2812 GND.n2811 257.615
R128 GND.n2734 GND.n2733 257.615
R129 GND.n2749 GND.n2748 251.553
R130 GND.n4068 GND.n4066 247.742
R131 GND.n2677 GND.n2676 197
R132 GND.n3956 GND.n3955 173.537
R133 GND.n4056 GND.n4055 167.905
R134 GND.n4159 GND.n4158 167.905
R135 GND.n8385 GND.n8384 158.196
R136 GND.n4151 GND.n4150 127.906
R137 GND.n11742 GND.n11741 108.689
R138 GND.n14007 GND.n14006 101.484
R139 GND.n15542 GND.n15541 101.484
R140 GND.n2811 GND.n2810 98.5
R141 GND.n12483 GND.n12482 95.515
R142 GND.n10360 GND.n10359 95.515
R143 GND.n9936 GND.n9935 95.515
R144 GND.n2802 GND.n2801 90.923
R145 GND.n4152 GND.n4149 89.545
R146 GND.n5818 GND.n5817 89.545
R147 GND.n1902 GND.n1901 89.545
R148 GND.n3961 GND.n3960 85.271
R149 GND.n4755 GND.n4754 83.575
R150 GND.n5223 GND.n5222 83.575
R151 GND.n3960 GND.n3959 79.947
R152 GND.n12118 GND.n12117 74.724
R153 GND.n12492 GND.n12491 65.666
R154 GND.n10369 GND.n10368 65.666
R155 GND.n821 GND.n820 65.666
R156 GND.n4556 GND.n4555 62.681
R157 GND.n2678 GND.n2677 60.615
R158 GND.n3962 GND.n3958 59.696
R159 GND.n8883 GND.n8882 59.696
R160 GND.n9238 GND.n9237 59.696
R161 GND.n8065 GND.n8064 55.353
R162 GND.n13424 GND.n13423 55.353
R163 GND.n12609 GND.n12608 55.353
R164 GND.n12908 GND.n12907 55.353
R165 GND.n12465 GND.n12464 55.353
R166 GND.n7074 GND.n7073 55.353
R167 GND.n957 GND.n956 55.353
R168 GND.n1400 GND.n1399 55.353
R169 GND.n5576 GND.n5575 55.353
R170 GND.n4317 GND.n4316 55.353
R171 GND.n15636 GND.n15635 55.353
R172 GND.n4659 GND.n4658 55.353
R173 GND.n5005 GND.n5004 55.353
R174 GND.n14821 GND.n14820 55.353
R175 GND.n3259 GND.n3258 54.344
R176 GND.n3916 GND.n3915 54.344
R177 GND.n3747 GND.n3746 54.344
R178 GND.n3059 GND.n3058 54.344
R179 GND.n7066 GND.n7065 54.344
R180 GND.n7075 GND.n7074 54.344
R181 GND.n8066 GND.n8065 54.344
R182 GND.n8057 GND.n8056 54.344
R183 GND.n7631 GND.n7630 54.344
R184 GND.n7926 GND.n7925 54.344
R185 GND.n13416 GND.n13415 54.344
R186 GND.n13425 GND.n13424 54.344
R187 GND.n12618 GND.n12617 54.344
R188 GND.n12610 GND.n12609 54.344
R189 GND.n13136 GND.n13135 54.344
R190 GND.n12909 GND.n12908 54.344
R191 GND.n12912 GND.n12911 54.344
R192 GND.n11781 GND.n11780 54.344
R193 GND.n12466 GND.n12465 54.344
R194 GND.n12469 GND.n12468 54.344
R195 GND.n6251 GND.n6250 54.344
R196 GND.n7616 GND.n7615 54.344
R197 GND.n11232 GND.n11231 54.344
R198 GND.n13639 GND.n13638 54.344
R199 GND.n10483 GND.n10482 54.344
R200 GND.n14830 GND.n14829 54.344
R201 GND.n14822 GND.n14821 54.344
R202 GND.n9101 GND.n9100 54.344
R203 GND.n9802 GND.n9801 54.344
R204 GND.n16102 GND.n16101 54.344
R205 GND.n1135 GND.n1134 54.344
R206 GND.n966 GND.n965 54.344
R207 GND.n958 GND.n957 54.344
R208 GND.n1198 GND.n1197 54.344
R209 GND.n1392 GND.n1391 54.344
R210 GND.n1401 GND.n1400 54.344
R211 GND.n10053 GND.n10052 54.344
R212 GND.n8792 GND.n8791 54.344
R213 GND.n5754 GND.n5753 54.344
R214 GND.n5585 GND.n5584 54.344
R215 GND.n5577 GND.n5576 54.344
R216 GND.n4326 GND.n4325 54.344
R217 GND.n4318 GND.n4317 54.344
R218 GND.n15628 GND.n15627 54.344
R219 GND.n15637 GND.n15636 54.344
R220 GND.n15190 GND.n15189 54.344
R221 GND.n4668 GND.n4667 54.344
R222 GND.n4660 GND.n4659 54.344
R223 GND.n5014 GND.n5013 54.344
R224 GND.n5006 GND.n5005 54.344
R225 GND.n4572 GND.n4571 53.727
R226 GND.n5795 GND.n5794 53.727
R227 GND.n5232 GND.n5231 53.727
R228 GND.n5446 GND.n5445 53.727
R229 GND.n2825 GND.n2824 51.523
R230 GND.n2976 GND.n2975 47.757
R231 GND.n6141 GND.n6140 47.757
R232 GND.n10337 GND.n10336 47.757
R233 GND.n9951 GND.n9950 47.757
R234 GND.n3247 GND.n3246 47.551
R235 GND.n3852 GND.n3851 47.551
R236 GND.n3647 GND.n3646 47.551
R237 GND.n3047 GND.n3046 47.551
R238 GND.n7747 GND.n7746 47.551
R239 GND.n7938 GND.n7937 47.551
R240 GND.n13072 GND.n13071 47.551
R241 GND.n11966 GND.n11965 47.551
R242 GND.n12044 GND.n12043 47.551
R243 GND.n11793 GND.n11792 47.551
R244 GND.n12259 GND.n12258 47.551
R245 GND.n12148 GND.n12147 47.551
R246 GND.n7305 GND.n7304 47.551
R247 GND.n7271 GND.n7270 47.551
R248 GND.n6263 GND.n6262 47.551
R249 GND.n11244 GND.n11243 47.551
R250 GND.n13651 GND.n13650 47.551
R251 GND.n10471 GND.n10470 47.551
R252 GND.n9001 GND.n9000 47.551
R253 GND.n8910 GND.n8909 47.551
R254 GND.n9206 GND.n9205 47.551
R255 GND.n9702 GND.n9701 47.551
R256 GND.n9611 GND.n9610 47.551
R257 GND.n9907 GND.n9906 47.551
R258 GND.n16002 GND.n16001 47.551
R259 GND.n15911 GND.n15910 47.551
R260 GND.n16207 GND.n16206 47.551
R261 GND.n1071 GND.n1070 47.551
R262 GND.n1292 GND.n1291 47.551
R263 GND.n10239 GND.n10238 47.551
R264 GND.n10205 GND.n10204 47.551
R265 GND.n10065 GND.n10064 47.551
R266 GND.n8804 GND.n8803 47.551
R267 GND.n8509 GND.n8508 47.551
R268 GND.n8475 GND.n8474 47.551
R269 GND.n5690 GND.n5689 47.551
R270 GND.n4431 GND.n4430 47.551
R271 GND.n4506 GND.n4505 47.551
R272 GND.n15178 GND.n15177 47.551
R273 GND.n3947 GND.n3913 44.155
R274 GND.n3933 GND.n3932 44.155
R275 GND.n7684 GND.n7628 44.155
R276 GND.n7661 GND.n7657 44.155
R277 GND.n13189 GND.n13133 44.155
R278 GND.n13166 GND.n13162 44.155
R279 GND.n12087 GND.n12083 44.155
R280 GND.n12191 GND.n12187 44.155
R281 GND.n7211 GND.n7209 44.155
R282 GND.n11154 GND.n11152 44.155
R283 GND.n13561 GND.n13559 44.155
R284 GND.n10413 GND.n10412 44.155
R285 GND.n10566 GND.n10564 44.155
R286 GND.n8936 GND.n8898 44.155
R287 GND.n8934 GND.n8933 44.155
R288 GND.n9637 GND.n9599 44.155
R289 GND.n9635 GND.n9634 44.155
R290 GND.n15937 GND.n15899 44.155
R291 GND.n15935 GND.n15934 44.155
R292 GND.n1166 GND.n1132 44.155
R293 GND.n1152 GND.n1151 44.155
R294 GND.n1229 GND.n1195 44.155
R295 GND.n1215 GND.n1214 44.155
R296 GND.n10303 GND.n10302 44.155
R297 GND.n10145 GND.n10143 44.155
R298 GND.n10127 GND.n10126 44.155
R299 GND.n8866 GND.n8865 44.155
R300 GND.n8714 GND.n8712 44.155
R301 GND.n8415 GND.n8413 44.155
R302 GND.n5785 GND.n5751 44.155
R303 GND.n5771 GND.n5770 44.155
R304 GND.n4532 GND.n4494 44.155
R305 GND.n4530 GND.n4529 44.155
R306 GND.n15878 GND.n15877 41.787
R307 GND.n14734 GND.n14733 41.787
R308 GND.n3235 GND.n3234 40.758
R309 GND.n3864 GND.n3863 40.758
R310 GND.n3643 GND.n3642 40.758
R311 GND.n3035 GND.n3034 40.758
R312 GND.n7041 GND.n7040 40.758
R313 GND.n7100 GND.n7099 40.758
R314 GND.n8091 GND.n8090 40.758
R315 GND.n8032 GND.n8031 40.758
R316 GND.n7730 GND.n7729 40.758
R317 GND.n7918 GND.n7917 40.758
R318 GND.n13391 GND.n13390 40.758
R319 GND.n13450 GND.n13449 40.758
R320 GND.n12643 GND.n12642 40.758
R321 GND.n12584 GND.n12583 40.758
R322 GND.n13084 GND.n13083 40.758
R323 GND.n12891 GND.n12890 40.758
R324 GND.n12965 GND.n12964 40.758
R325 GND.n11773 GND.n11772 40.758
R326 GND.n12448 GND.n12447 40.758
R327 GND.n12360 GND.n12359 40.758
R328 GND.n6275 GND.n6274 40.758
R329 GND.n11256 GND.n11255 40.758
R330 GND.n13663 GND.n13662 40.758
R331 GND.n10459 GND.n10458 40.758
R332 GND.n14855 GND.n14854 40.758
R333 GND.n14796 GND.n14795 40.758
R334 GND.n9202 GND.n9201 40.758
R335 GND.n9903 GND.n9902 40.758
R336 GND.n16203 GND.n16202 40.758
R337 GND.n1083 GND.n1082 40.758
R338 GND.n875 GND.n874 40.758
R339 GND.n932 GND.n931 40.758
R340 GND.n1275 GND.n1274 40.758
R341 GND.n1513 GND.n1512 40.758
R342 GND.n1426 GND.n1425 40.758
R343 GND.n10077 GND.n10076 40.758
R344 GND.n8816 GND.n8815 40.758
R345 GND.n5702 GND.n5701 40.758
R346 GND.n5494 GND.n5493 40.758
R347 GND.n5551 GND.n5550 40.758
R348 GND.n4235 GND.n4234 40.758
R349 GND.n4292 GND.n4291 40.758
R350 GND.n15603 GND.n15602 40.758
R351 GND.n15662 GND.n15661 40.758
R352 GND.n15166 GND.n15165 40.758
R353 GND.n4693 GND.n4692 40.758
R354 GND.n4634 GND.n4633 40.758
R355 GND.n5039 GND.n5038 40.758
R356 GND.n4980 GND.n4979 40.758
R357 GND.n3630 GND.n3629 40.459
R358 GND.n3667 GND.n3666 40.459
R359 GND.n2988 GND.n2987 40.459
R360 GND.n7983 GND.n7981 40.459
R361 GND.n7904 GND.n7903 40.459
R362 GND.n12522 GND.n12520 40.459
R363 GND.n12694 GND.n12693 40.459
R364 GND.n13501 GND.n13500 40.459
R365 GND.n13343 GND.n13341 40.459
R366 GND.n12916 GND.n12853 40.459
R367 GND.n12860 GND.n12859 40.459
R368 GND.n11759 GND.n11758 40.459
R369 GND.n11813 GND.n11812 40.459
R370 GND.n12089 GND.n12028 40.459
R371 GND.n12473 GND.n12410 40.459
R372 GND.n12417 GND.n12416 40.459
R373 GND.n12193 GND.n12132 40.459
R374 GND.n7956 GND.n7897 40.459
R375 GND.n7152 GND.n7150 40.459
R376 GND.n6992 GND.n6991 40.459
R377 GND.n8142 GND.n8141 40.459
R378 GND.n6324 GND.n6323 40.459
R379 GND.n7368 GND.n7367 40.459
R380 GND.n6171 GND.n6169 40.459
R381 GND.n13712 GND.n13711 40.459
R382 GND.n11305 GND.n11304 40.459
R383 GND.n14747 GND.n14745 40.459
R384 GND.n9189 GND.n9188 40.459
R385 GND.n9890 GND.n9889 40.459
R386 GND.n16190 GND.n16189 40.459
R387 GND.n16225 GND.n16183 40.459
R388 GND.n883 GND.n838 40.459
R389 GND.n845 GND.n844 40.459
R390 GND.n9925 GND.n9883 40.459
R391 GND.n1521 GND.n1476 40.459
R392 GND.n1483 GND.n1482 40.459
R393 GND.n9973 GND.n9972 40.459
R394 GND.n8572 GND.n8571 40.459
R395 GND.n9224 GND.n9182 40.459
R396 GND.n5502 GND.n5457 40.459
R397 GND.n5464 GND.n5463 40.459
R398 GND.n4243 GND.n4198 40.459
R399 GND.n4205 GND.n4204 40.459
R400 GND.n15714 GND.n15712 40.459
R401 GND.n15119 GND.n15118 40.459
R402 GND.n15554 GND.n15553 40.459
R403 GND.n4585 GND.n4583 40.459
R404 GND.n4931 GND.n4929 40.459
R405 GND.n4744 GND.n4743 40.459
R406 GND.n5090 GND.n5089 40.459
R407 GND.n3142 GND.n3140 40.459
R408 GND.n3189 GND.n3188 40.459
R409 GND.n3342 GND.n3340 40.459
R410 GND.n14906 GND.n14905 40.459
R411 GND.n15272 GND.n15271 40.459
R412 GND.n3330 GND.n3328 37.362
R413 GND.n3937 GND.n3936 37.362
R414 GND.n3681 GND.n3679 37.362
R415 GND.n3130 GND.n3128 37.362
R416 GND.n7006 GND.n7004 37.362
R417 GND.n7140 GND.n7138 37.362
R418 GND.n8131 GND.n8129 37.362
R419 GND.n7997 GND.n7995 37.362
R420 GND.n7668 GND.n7664 37.362
R421 GND.n13356 GND.n13354 37.362
R422 GND.n13490 GND.n13488 37.362
R423 GND.n12683 GND.n12681 37.362
R424 GND.n12549 GND.n12547 37.362
R425 GND.n13173 GND.n13169 37.362
R426 GND.n12867 GND.n12863 37.362
R427 GND.n12930 GND.n12928 37.362
R428 GND.n11826 GND.n11824 37.362
R429 GND.n12424 GND.n12420 37.362
R430 GND.n12400 GND.n12398 37.362
R431 GND.n6185 GND.n6183 37.362
R432 GND.n11166 GND.n11165 37.362
R433 GND.n13573 GND.n13572 37.362
R434 GND.n10553 GND.n10552 37.362
R435 GND.n14895 GND.n14893 37.362
R436 GND.n14761 GND.n14759 37.362
R437 GND.n9172 GND.n9170 37.362
R438 GND.n9873 GND.n9871 37.362
R439 GND.n16173 GND.n16171 37.362
R440 GND.n1156 GND.n1155 37.362
R441 GND.n852 GND.n848 37.362
R442 GND.n897 GND.n895 37.362
R443 GND.n1219 GND.n1218 37.362
R444 GND.n1490 GND.n1486 37.362
R445 GND.n1466 GND.n1464 37.362
R446 GND.n9987 GND.n9985 37.362
R447 GND.n8726 GND.n8725 37.362
R448 GND.n5775 GND.n5774 37.362
R449 GND.n5471 GND.n5467 37.362
R450 GND.n5516 GND.n5514 37.362
R451 GND.n4212 GND.n4208 37.362
R452 GND.n4257 GND.n4255 37.362
R453 GND.n15568 GND.n15566 37.362
R454 GND.n15702 GND.n15700 37.362
R455 GND.n15261 GND.n15259 37.362
R456 GND.n4733 GND.n4731 37.362
R457 GND.n4599 GND.n4597 37.362
R458 GND.n5079 GND.n5077 37.362
R459 GND.n4945 GND.n4943 37.362
R460 GND.n3200 GND.n3199 34.603
R461 GND.n3901 GND.n3900 34.603
R462 GND.n3663 GND.n3662 34.603
R463 GND.n3000 GND.n2999 34.603
R464 GND.n7695 GND.n7694 34.603
R465 GND.n7954 GND.n7953 34.603
R466 GND.n7886 GND.n7885 34.603
R467 GND.n13121 GND.n13120 34.603
R468 GND.n12080 GND.n12075 34.603
R469 GND.n11809 GND.n11808 34.603
R470 GND.n12017 GND.n12016 34.603
R471 GND.n12184 GND.n12179 34.603
R472 GND.n12205 GND.n12204 34.603
R473 GND.n7222 GND.n7221 34.603
R474 GND.n6312 GND.n6311 34.603