**.subckt vco_wo_ind OUT_P IND_CT Vtune freq<0> freq<1> freq<2> freq<3> freq<4> freq<5> GND BUF_P
*+ BUF_N OUT_N VBIAS_BUF VDD VBIAS
*.iopin OUT_P
*.iopin IND_CT
*.iopin Vtune
*.ipin freq<0>
*.ipin freq<1>
*.ipin freq<2>
*.ipin freq<3>
*.ipin freq<4>
*.ipin freq<5>
*.iopin GND
*.opin BUF_P
*.opin BUF_N
*.iopin OUT_N
*.iopin VBIAS_BUF
*.iopin VDD
*.iopin VBIAS
X1 OUT_P OUT_N GND Vtune cap_var
X2 OUT_P OUT_N VDD GND freq<0> freq<1> freq<2> freq<3> freq<4> freq<5> capbank
XC1 OUT_P OUT_N sky130_fd_pr__cap_mim_m3_1 W=13.3 L=13.3 MF=1 m=1
R2 net1 VBIAS_BUF sky130_fd_pr__res_generic_po W=1 L=6 m=1
x2 OUT_P OUT_N GND vco_pair_pex
X3 net1 VDD GND BUF_N BUF_P OUT_P OUT_N buffer_pex
x3 VDD IND_CT GND VBIAS vco_pmirr_pex
**.ends

* expanding   symbol:  cap_var.sym # of pins=4
* sym_path: /home/student/Downloads/caravel_asic_one/xschem/cap_var.sym
* sch_path: /home/student/Downloads/caravel_asic_one/xschem/cap_var.sch
.subckt cap_var  OUT_P OUT_N GND Vtune
*.iopin OUT_P
*.iopin OUT_N
*.iopin Vtune
*.iopin GND
XC1 OUT_P Vtune GND sky130_fd_pr__cap_var_lvt W=4 L=0.6 VM=14 m=14
XC2 OUT_N Vtune GND sky130_fd_pr__cap_var_lvt W=4 L=0.6 VM=14 m=14
.ends


* expanding   symbol:  capbank.sym # of pins=10
* sym_path: /home/student/Downloads/caravel_asic_one/xschem/capbank.sym
* sch_path: /home/student/Downloads/caravel_asic_one/xschem/capbank.sch
.subckt capbank  OUT_P OUT_N VDD GND bit0 bit1 bit2 bit3 bit4 bit5
*.iopin VDD
*.iopin GND
*.ipin bit0
*.ipin bit1
*.ipin bit2
*.ipin bit3
*.ipin bit4
*.ipin bit5
*.iopin OUT_P
*.iopin OUT_N
X1 w_inv5 bit5 OUT_P GND OUT_N cell_unit
X2 w_inv5 bit5 OUT_P GND OUT_N cell_unit
X3 w_inv5 bit5 OUT_P GND OUT_N cell_unit
X4 w_inv5 bit5 OUT_P GND OUT_N cell_unit
X5 w_inv5 bit5 OUT_P GND OUT_N cell_unit
X6 w_inv5 bit5 OUT_P GND OUT_N cell_unit
X7 w_inv5 bit5 OUT_P GND OUT_N cell_unit
X8 w_inv5 bit5 OUT_P GND OUT_N cell_unit
X9 w_inv5 bit5 OUT_P GND OUT_N cell_unit
X10 w_inv5 bit5 OUT_P GND OUT_N cell_unit
X11 w_inv5 bit5 OUT_P GND OUT_N cell_unit
X12 w_inv5 bit5 OUT_P GND OUT_N cell_unit
X13 w_inv5 bit5 OUT_P GND OUT_N cell_unit
X14 w_inv5 bit5 OUT_P GND OUT_N cell_unit
X15 w_inv5 bit5 OUT_P GND OUT_N cell_unit
X16 w_inv5 bit5 OUT_P GND OUT_N cell_unit
X17 w_inv5 bit5 OUT_P GND OUT_N cell_unit
X18 w_inv5 bit5 OUT_P GND OUT_N cell_unit
X19 w_inv5 bit5 OUT_P GND OUT_N cell_unit
X20 w_inv5 bit5 OUT_P GND OUT_N cell_unit
X21 w_inv5 bit5 OUT_P GND OUT_N cell_unit
X22 w_inv5 bit5 OUT_P GND OUT_N cell_unit
X23 w_inv5 bit5 OUT_P GND OUT_N cell_unit
X24 w_inv5 bit5 OUT_P GND OUT_N cell_unit
X25 w_inv5 bit5 OUT_P GND OUT_N cell_unit
X26 w_inv5 bit5 OUT_P GND OUT_N cell_unit
X27 w_inv5 bit5 OUT_P GND OUT_N cell_unit
X28 w_inv5 bit5 OUT_P GND OUT_N cell_unit
X29 w_inv5 bit5 OUT_P GND OUT_N cell_unit
X30 w_inv5 bit5 OUT_P GND OUT_N cell_unit
X31 w_inv5 bit5 OUT_P GND OUT_N cell_unit
X32 w_inv5 bit5 OUT_P GND OUT_N cell_unit
X33 w_inv4 bit4 OUT_P GND OUT_N cell_unit
X34 w_inv4 bit4 OUT_P GND OUT_N cell_unit
X35 w_inv4 bit4 OUT_P GND OUT_N cell_unit
X36 w_inv4 bit4 OUT_P GND OUT_N cell_unit
X37 w_inv4 bit4 OUT_P GND OUT_N cell_unit
X38 w_inv4 bit4 OUT_P GND OUT_N cell_unit
X39 w_inv4 bit4 OUT_P GND OUT_N cell_unit
X40 w_inv4 bit4 OUT_P GND OUT_N cell_unit
X41 w_inv4 bit4 OUT_P GND OUT_N cell_unit
X42 w_inv4 bit4 OUT_P GND OUT_N cell_unit
X43 w_inv4 bit4 OUT_P GND OUT_N cell_unit
X44 w_inv4 bit4 OUT_P GND OUT_N cell_unit
X45 w_inv4 bit4 OUT_P GND OUT_N cell_unit
X46 w_inv4 bit4 OUT_P GND OUT_N cell_unit
X47 w_inv4 bit4 OUT_P GND OUT_N cell_unit
X48 w_inv4 bit4 OUT_P GND OUT_N cell_unit
X49 w_inv3 bit3 OUT_P GND OUT_N cell_unit
X50 w_inv3 bit3 OUT_P GND OUT_N cell_unit
X51 w_inv3 bit3 OUT_P GND OUT_N cell_unit
X52 w_inv3 bit3 OUT_P GND OUT_N cell_unit
X53 w_inv3 bit3 OUT_P GND OUT_N cell_unit
X54 w_inv3 bit3 OUT_P GND OUT_N cell_unit
X55 w_inv3 bit3 OUT_P GND OUT_N cell_unit
X56 w_inv3 bit3 OUT_P GND OUT_N cell_unit
X57 w_inv2 bit2 OUT_P GND OUT_N cell_unit
X58 w_inv2 bit2 OUT_P GND OUT_N cell_unit
X59 w_inv2 bit2 OUT_P GND OUT_N cell_unit
X60 w_inv2 bit2 OUT_P GND OUT_N cell_unit
X61 w_inv1 bit1 OUT_P GND OUT_N cell_unit
X62 w_inv1 bit1 OUT_P GND OUT_N cell_unit
X63 w_inv0 bit0 OUT_P GND OUT_N cell_unit
X64 bit0 w_inv0 VDD GND inv
X65 bit1 w_inv1 VDD GND inv
X66 bit2 w_inv2 VDD GND inv
X67 bit3 w_inv3 VDD GND inv
X68 bit4 w_inv4 VDD GND inv
X69 bit5 w_inv5 VDD GND inv
.ends


* expanding   symbol:  vco_pair_pex.sym # of pins=3
* sym_path: /home/student/Downloads/caravel_asic_one/xschem/vco_pair_pex.sym
* sch_path: /home/student/Downloads/caravel_asic_one/xschem/vco_pair_pex.sch
.subckt vco_pair_pex  OUT_P OUT_N GND
*.iopin OUT_P
*.iopin OUT_N
*.iopin GND
**** begin user architecture code


* NGSPICE file created from vco_pair_pex.ext - technology: sky130B

.subckt vco_pair_pex OUT_P OUT_N GND
X0 OUT_N.t13 OUT_P.t14 GND.t77 GND.t76 sky130_fd_pr__nfet_01v8 ad=0p pd=0u as=0p ps=0u w=5.05e+06u
+ l=150000u
X1 OUT_N.t12 OUT_P.t15 GND.t75 GND.t74 sky130_fd_pr__nfet_01v8 ad=0p pd=0u as=0p ps=0u w=5.05e+06u
+ l=150000u
X2 GND.t73 OUT_P.t16 OUT_N.t11 GND.t72 sky130_fd_pr__nfet_01v8 ad=0p pd=0u as=0p ps=0u w=5.05e+06u
+ l=150000u
X3 GND GND.t39 GND GND.t40 sky130_fd_pr__nfet_01v8 ad=5.656e+13p pd=4.264e+08u as=0p ps=0u
+ w=5.05e+06u l=150000u
X4 GND.t71 OUT_P.t17 OUT_N.t10 GND.t70 sky130_fd_pr__nfet_01v8 ad=0p pd=0u as=0p ps=0u w=5.05e+06u
+ l=150000u
X5 GND.t69 OUT_P.t18 OUT_N.t9 GND.t68 sky130_fd_pr__nfet_01v8 ad=0p pd=0u as=0p ps=0u w=5.05e+06u
+ l=150000u
X6 OUT_P.t6 OUT_N.t14 GND.t49 GND.t48 sky130_fd_pr__nfet_01v8 ad=0p pd=0u as=0p ps=0u w=5.05e+06u
+ l=150000u
X7 GND GND.t34 GND GND.t35 sky130_fd_pr__nfet_01v8 ad=0p pd=0u as=0p ps=0u w=5.05e+06u l=150000u
X8 OUT_N.t8 OUT_P.t19 GND.t67 GND.t66 sky130_fd_pr__nfet_01v8 ad=0p pd=0u as=0p ps=0u w=5.05e+06u
+ l=150000u
X9 GND GND.t29 GND GND.t30 sky130_fd_pr__nfet_01v8 ad=0p pd=0u as=0p ps=0u w=5.05e+06u l=150000u
X10 GND.t91 OUT_N.t15 OUT_P.t13 GND.t90 sky130_fd_pr__nfet_01v8 ad=0p pd=0u as=0p ps=0u w=5.05e+06u
+ l=150000u
X11 OUT_N.t7 OUT_P.t20 GND.t65 GND.t64 sky130_fd_pr__nfet_01v8 ad=0p pd=0u as=0p ps=0u w=5.05e+06u
+ l=150000u
X12 GND.t83 OUT_N.t16 OUT_P.t9 GND.t82 sky130_fd_pr__nfet_01v8 ad=0p pd=0u as=0p ps=0u w=5.05e+06u
+ l=150000u
X13 GND.t28 GND.t25 GND.t27 GND.t26 sky130_fd_pr__nfet_01v8 ad=0p pd=0u as=0p ps=0u w=5.05e+06u
+ l=150000u
X14 GND.t81 OUT_N.t17 OUT_P.t8 GND.t80 sky130_fd_pr__nfet_01v8 ad=0p pd=0u as=0p ps=0u w=5.05e+06u
+ l=150000u
X15 GND.t63 OUT_P.t21 OUT_N.t6 GND.t62 sky130_fd_pr__nfet_01v8 ad=0p pd=0u as=0p ps=0u w=5.05e+06u
+ l=150000u
X16 OUT_P.t7 OUT_N.t18 GND.t79 GND.t78 sky130_fd_pr__nfet_01v8 ad=0p pd=0u as=0p ps=0u w=5.05e+06u
+ l=150000u
X17 OUT_N.t5 OUT_P.t22 GND.t61 GND.t60 sky130_fd_pr__nfet_01v8 ad=0p pd=0u as=0p ps=0u w=5.05e+06u
+ l=150000u
X18 GND.t87 OUT_N.t19 OUT_P.t11 GND.t86 sky130_fd_pr__nfet_01v8 ad=0p pd=0u as=0p ps=0u w=5.05e+06u
+ l=150000u
X19 GND.t7 OUT_N.t20 OUT_P.t3 GND.t6 sky130_fd_pr__nfet_01v8 ad=0p pd=0u as=0p ps=0u w=5.05e+06u
+ l=150000u
X20 GND.t24 GND.t21 GND.t23 GND.t22 sky130_fd_pr__nfet_01v8 ad=0p pd=0u as=0p ps=0u w=5.05e+06u
+ l=150000u
X21 OUT_P.t10 OUT_N.t21 GND.t85 GND.t84 sky130_fd_pr__nfet_01v8 ad=0p pd=0u as=0p ps=0u w=5.05e+06u
+ l=150000u
X22 GND.t47 OUT_N.t22 OUT_P.t5 GND.t46 sky130_fd_pr__nfet_01v8 ad=0p pd=0u as=0p ps=0u w=5.05e+06u
+ l=150000u
X23 OUT_P.t4 OUT_N.t23 GND.t45 GND.t44 sky130_fd_pr__nfet_01v8 ad=0p pd=0u as=0p ps=0u w=5.05e+06u
+ l=150000u
X24 OUT_P.t1 OUT_N.t24 GND.t3 GND.t2 sky130_fd_pr__nfet_01v8 ad=0p pd=0u as=0p ps=0u w=5.05e+06u
+ l=150000u
X25 OUT_P.t2 OUT_N.t25 GND.t5 GND.t4 sky130_fd_pr__nfet_01v8 ad=0p pd=0u as=0p ps=0u w=5.05e+06u
+ l=150000u
X26 OUT_N.t4 OUT_P.t23 GND.t59 GND.t58 sky130_fd_pr__nfet_01v8 ad=0p pd=0u as=0p ps=0u w=5.05e+06u
+ l=150000u
X27 OUT_P.t0 OUT_N.t26 GND.t1 GND.t0 sky130_fd_pr__nfet_01v8 ad=0p pd=0u as=0p ps=0u w=5.05e+06u
+ l=150000u
X28 GND.t57 OUT_P.t24 OUT_N.t3 GND.t56 sky130_fd_pr__nfet_01v8 ad=0p pd=0u as=0p ps=0u w=5.05e+06u
+ l=150000u
X29 GND.t89 OUT_N.t27 OUT_P.t12 GND.t88 sky130_fd_pr__nfet_01v8 ad=0p pd=0u as=0p ps=0u w=5.05e+06u
+ l=150000u
X30 GND.t55 OUT_P.t25 OUT_N.t2 GND.t54 sky130_fd_pr__nfet_01v8 ad=0p pd=0u as=0p ps=0u w=5.05e+06u
+ l=150000u
X31 GND.t20 GND.t17 GND.t19 GND.t18 sky130_fd_pr__nfet_01v8 ad=0p pd=0u as=0p ps=0u w=5.05e+06u
+ l=150000u
X32 GND.t16 GND.t13 GND.t15 GND.t14 sky130_fd_pr__nfet_01v8 ad=0p pd=0u as=0p ps=0u w=5.05e+06u
+ l=150000u
X33 GND.t53 OUT_P.t26 OUT_N.t1 GND.t52 sky130_fd_pr__nfet_01v8 ad=0p pd=0u as=0p ps=0u w=5.05e+06u
+ l=150000u
X34 GND GND.t8 GND GND.t9 sky130_fd_pr__nfet_01v8 ad=0p pd=0u as=0p ps=0u w=5.05e+06u l=150000u
X35 OUT_N.t0 OUT_P.t27 GND.t51 GND.t50 sky130_fd_pr__nfet_01v8 ad=0p pd=0u as=0p ps=0u w=5.05e+06u
+ l=150000u
R0 OUT_P.n1266 OUT_P.t24 846.712
R1 OUT_P.n1269 OUT_P.t14 846.712
R2 OUT_P.n1195 OUT_P.t20 846.712
R3 OUT_P.n1209 OUT_P.t26 846.712
R4 OUT_P.n1294 OUT_P.t25 846.712
R5 OUT_P.n1297 OUT_P.t23 846.712
R6 OUT_P.n1158 OUT_P.t15 846.712
R7 OUT_P.n1172 OUT_P.t18 846.712
R8 OUT_P.n1246 OUT_P.t17 846.712
R9 OUT_P.n1233 OUT_P.t22 846.712
R10 OUT_P.n1128 OUT_P.t19 846.712
R11 OUT_P.n1125 OUT_P.t21 846.712
R12 OUT_P.n0 OUT_P.t27 846.712
R13 OUT_P.n1323 OUT_P.t16 846.712
R14 OUT_P.n1267 OUT_P.n1266 24.127
R15 OUT_P.n1270 OUT_P.n1269 24.127
R16 OUT_P.n457 OUT_P.n456 24.127
R17 OUT_P.n440 OUT_P.n439 24.127
R18 OUT_P.n1210 OUT_P.n1209 24.127
R19 OUT_P.n1196 OUT_P.n1195 24.127
R20 OUT_P.n487 OUT_P.n486 24.127
R21 OUT_P.n498 OUT_P.n497 24.127
R22 OUT_P.n1295 OUT_P.n1294 24.127
R23 OUT_P.n1298 OUT_P.n1297 24.127
R24 OUT_P.n538 OUT_P.n537 24.127
R25 OUT_P.n521 OUT_P.n520 24.127
R26 OUT_P.n1173 OUT_P.n1172 24.127
R27 OUT_P.n1159 OUT_P.n1158 24.127
R28 OUT_P.n568 OUT_P.n567 24.127
R29 OUT_P.n580 OUT_P.n579 24.127
R30 OUT_P.n773 OUT_P.n772 24.127
R31 OUT_P.n780 OUT_P.n779 24.127
R32 OUT_P.n1247 OUT_P.n1246 24.127
R33 OUT_P.n1234 OUT_P.n1233 24.127
R34 OUT_P.n1126 OUT_P.n1125 24.127
R35 OUT_P.n1129 OUT_P.n1128 24.127
R36 OUT_P.n614 OUT_P.n613 24.127
R37 OUT_P.n626 OUT_P.n625 24.127
R38 OUT_P.n667 OUT_P.n666 24.127
R39 OUT_P.n675 OUT_P.n674 24.127
R40 OUT_P.n1324 OUT_P.n1323 24.127
R41 OUT_P.n1 OUT_P.n0 24.127
R42 OUT_P.n874 OUT_P.n873 9.31
R43 OUT_P.n975 OUT_P.n974 9.31
R44 OUT_P.n1076 OUT_P.n1075 9.31
R45 OUT_P.n42 OUT_P.n41 9.3
R46 OUT_P.n40 OUT_P.n39 9.3
R47 OUT_P.n52 OUT_P.n51 9.3
R48 OUT_P.n82 OUT_P.n81 9.3
R49 OUT_P.n72 OUT_P.n71 9.3
R50 OUT_P.n80 OUT_P.n79 9.3
R51 OUT_P.n77 OUT_P.n76 9.3
R52 OUT_P.n70 OUT_P.n69 9.3
R53 OUT_P.n66 OUT_P.n65 9.3
R54 OUT_P.n60 OUT_P.n59 9.3
R55 OUT_P.n56 OUT_P.n55 9.3
R56 OUT_P.n20 OUT_P.n19 9.3
R57 OUT_P.n47 OUT_P.n46 9.3
R58 OUT_P.n87 OUT_P.n86 9.3
R59 OUT_P.n209 OUT_P.n208 9.3
R60 OUT_P.n198 OUT_P.n197 9.3
R61 OUT_P.n204 OUT_P.n203 9.3
R62 OUT_P.n162 OUT_P.n161 9.3
R63 OUT_P.n164 OUT_P.n163 9.3
R64 OUT_P.n202 OUT_P.n201 9.3
R65 OUT_P.n182 OUT_P.n181 9.3
R66 OUT_P.n178 OUT_P.n177 9.3
R67 OUT_P.n174 OUT_P.n173 9.3
R68 OUT_P.n170 OUT_P.n169 9.3
R69 OUT_P.n188 OUT_P.n187 9.3
R70 OUT_P.n191 OUT_P.n190 9.3
R71 OUT_P.n193 OUT_P.n192 9.3
R72 OUT_P.n125 OUT_P.n124 9.3
R73 OUT_P.n314 OUT_P.n313 9.3
R74 OUT_P.n303 OUT_P.n302 9.3
R75 OUT_P.n309 OUT_P.n308 9.3
R76 OUT_P.n267 OUT_P.n266 9.3
R77 OUT_P.n269 OUT_P.n268 9.3
R78 OUT_P.n307 OUT_P.n306 9.3
R79 OUT_P.n287 OUT_P.n286 9.3
R80 OUT_P.n283 OUT_P.n282 9.3
R81 OUT_P.n279 OUT_P.n278 9.3
R82 OUT_P.n275 OUT_P.n274 9.3
R83 OUT_P.n293 OUT_P.n292 9.3
R84 OUT_P.n296 OUT_P.n295 9.3
R85 OUT_P.n298 OUT_P.n297 9.3
R86 OUT_P.n230 OUT_P.n229 9.3
R87 OUT_P.n419 OUT_P.n418 9.3
R88 OUT_P.n408 OUT_P.n407 9.3
R89 OUT_P.n414 OUT_P.n413 9.3
R90 OUT_P.n372 OUT_P.n371 9.3
R91 OUT_P.n374 OUT_P.n373 9.3
R92 OUT_P.n412 OUT_P.n411 9.3
R93 OUT_P.n392 OUT_P.n391 9.3
R94 OUT_P.n388 OUT_P.n387 9.3
R95 OUT_P.n384 OUT_P.n383 9.3
R96 OUT_P.n380 OUT_P.n379 9.3
R97 OUT_P.n398 OUT_P.n397 9.3
R98 OUT_P.n401 OUT_P.n400 9.3
R99 OUT_P.n403 OUT_P.n402 9.3
R100 OUT_P.n335 OUT_P.n334 9.3
R101 OUT_P.n848 OUT_P.n847 9.3
R102 OUT_P.n854 OUT_P.n853 9.3
R103 OUT_P.n844 OUT_P.n843 9.3
R104 OUT_P.n870 OUT_P.n869 9.3
R105 OUT_P.n864 OUT_P.n863 9.3
R106 OUT_P.n860 OUT_P.n859 9.3
R107 OUT_P.n838 OUT_P.n837 9.3
R108 OUT_P.n827 OUT_P.n826 9.3
R109 OUT_P.n829 OUT_P.n828 9.3
R110 OUT_P.n820 OUT_P.n819 9.3
R111 OUT_P.n834 OUT_P.n833 9.3
R112 OUT_P.n840 OUT_P.n839 9.3
R113 OUT_P.n850 OUT_P.n849 9.3
R114 OUT_P.n966 OUT_P.n965 9.3
R115 OUT_P.n956 OUT_P.n955 9.3
R116 OUT_P.n972 OUT_P.n971 9.3
R117 OUT_P.n950 OUT_P.n949 9.3
R118 OUT_P.n941 OUT_P.n940 9.3
R119 OUT_P.n939 OUT_P.n938 9.3
R120 OUT_P.n931 OUT_P.n930 9.3
R121 OUT_P.n935 OUT_P.n934 9.3
R122 OUT_P.n929 OUT_P.n928 9.3
R123 OUT_P.n922 OUT_P.n921 9.3
R124 OUT_P.n946 OUT_P.n945 9.3
R125 OUT_P.n952 OUT_P.n951 9.3
R126 OUT_P.n962 OUT_P.n961 9.3
R127 OUT_P.n1067 OUT_P.n1066 9.3
R128 OUT_P.n1057 OUT_P.n1056 9.3
R129 OUT_P.n1073 OUT_P.n1072 9.3
R130 OUT_P.n1051 OUT_P.n1050 9.3
R131 OUT_P.n1042 OUT_P.n1041 9.3
R132 OUT_P.n1040 OUT_P.n1039 9.3
R133 OUT_P.n1032 OUT_P.n1031 9.3
R134 OUT_P.n1036 OUT_P.n1035 9.3
R135 OUT_P.n1030 OUT_P.n1029 9.3
R136 OUT_P.n1023 OUT_P.n1022 9.3
R137 OUT_P.n1047 OUT_P.n1046 9.3
R138 OUT_P.n1053 OUT_P.n1052 9.3
R139 OUT_P.n1063 OUT_P.n1062 9.3
R140 OUT_P.n442 OUT_P.n441 9.3
R141 OUT_P.n489 OUT_P.n488 9.3
R142 OUT_P.n500 OUT_P.n499 9.3
R143 OUT_P.n523 OUT_P.n522 9.3
R144 OUT_P.n570 OUT_P.n569 9.3
R145 OUT_P.n582 OUT_P.n581 9.3
R146 OUT_P.n782 OUT_P.n781 9.3
R147 OUT_P.n616 OUT_P.n615 9.3
R148 OUT_P.n628 OUT_P.n627 9.3
R149 OUT_P.n677 OUT_P.n676 9.3
R150 OUT_P.n78 OUT_P.n44 9
R151 OUT_P.n68 OUT_P.n67 9
R152 OUT_P.n58 OUT_P.n45 9
R153 OUT_P.n21 OUT_P.n18 9
R154 OUT_P.n36 OUT_P.n35 9
R155 OUT_P.n49 OUT_P.n48 9
R156 OUT_P.n88 OUT_P.n43 9
R157 OUT_P.n171 OUT_P.n168 9
R158 OUT_P.n180 OUT_P.n167 9
R159 OUT_P.n189 OUT_P.n166 9
R160 OUT_P.n210 OUT_P.n165 9
R161 OUT_P.n141 OUT_P.n140 9
R162 OUT_P.n200 OUT_P.n199 9
R163 OUT_P.n126 OUT_P.n123 9
R164 OUT_P.n276 OUT_P.n273 9
R165 OUT_P.n285 OUT_P.n272 9
R166 OUT_P.n294 OUT_P.n271 9
R167 OUT_P.n315 OUT_P.n270 9
R168 OUT_P.n246 OUT_P.n245 9
R169 OUT_P.n305 OUT_P.n304 9
R170 OUT_P.n231 OUT_P.n228 9
R171 OUT_P.n381 OUT_P.n378 9
R172 OUT_P.n390 OUT_P.n377 9
R173 OUT_P.n399 OUT_P.n376 9
R174 OUT_P.n420 OUT_P.n375 9
R175 OUT_P.n351 OUT_P.n350 9
R176 OUT_P.n410 OUT_P.n409 9
R177 OUT_P.n336 OUT_P.n333 9
R178 OUT_P.n861 OUT_P.n807 9
R179 OUT_P.n872 OUT_P.n871 9
R180 OUT_P.n818 OUT_P.n813 9
R181 OUT_P.n825 OUT_P.n824 9
R182 OUT_P.n831 OUT_P.n830 9
R183 OUT_P.n841 OUT_P.n809 9
R184 OUT_P.n851 OUT_P.n808 9
R185 OUT_P.n920 OUT_P.n915 9
R186 OUT_P.n973 OUT_P.n908 9
R187 OUT_P.n932 OUT_P.n911 9
R188 OUT_P.n927 OUT_P.n926 9
R189 OUT_P.n943 OUT_P.n942 9
R190 OUT_P.n953 OUT_P.n910 9
R191 OUT_P.n963 OUT_P.n909 9
R192 OUT_P.n1021 OUT_P.n1016 9
R193 OUT_P.n1074 OUT_P.n1009 9
R194 OUT_P.n1033 OUT_P.n1012 9
R195 OUT_P.n1028 OUT_P.n1027 9
R196 OUT_P.n1044 OUT_P.n1043 9
R197 OUT_P.n1054 OUT_P.n1011 9
R198 OUT_P.n1064 OUT_P.n1010 9
R199 OUT_P.n566 OUT_P.n565 9
R200 OUT_P.n578 OUT_P.n577 9
R201 OUT_P.n519 OUT_P.n518 9
R202 OUT_P.n485 OUT_P.n484 9
R203 OUT_P.n496 OUT_P.n495 9
R204 OUT_P.n438 OUT_P.n437 9
R205 OUT_P.n778 OUT_P.n777 9
R206 OUT_P.n612 OUT_P.n611 9
R207 OUT_P.n624 OUT_P.n623 9
R208 OUT_P.n673 OUT_P.n672 9
R209 OUT_P.n1278 OUT_P.n1277 8.764
R210 OUT_P.n449 OUT_P.n448 8.764
R211 OUT_P.n1205 OUT_P.n1204 8.764
R212 OUT_P.n507 OUT_P.n506 8.764
R213 OUT_P.n1306 OUT_P.n1305 8.764
R214 OUT_P.n530 OUT_P.n529 8.764
R215 OUT_P.n1168 OUT_P.n1167 8.764
R216 OUT_P.n589 OUT_P.n588 8.764
R217 OUT_P.n789 OUT_P.n788 8.764
R218 OUT_P.n1232 OUT_P.n1231 8.764
R219 OUT_P.n1138 OUT_P.n1137 8.764
R220 OUT_P.n635 OUT_P.n634 8.764
R221 OUT_P.n684 OUT_P.n683 8.764
R222 OUT_P.n1329 OUT_P.n1328 8.764
R223 OUT_P.n15 OUT_P.n14 8.097
R224 OUT_P.n120 OUT_P.n119 8.097
R225 OUT_P.n225 OUT_P.n224 8.097
R226 OUT_P.n330 OUT_P.n329 8.097
R227 OUT_P.n1272 OUT_P.n1271 6.364
R228 OUT_P.n1198 OUT_P.n1197 6.364
R229 OUT_P.n1300 OUT_P.n1299 6.364
R230 OUT_P.n1161 OUT_P.n1160 6.364
R231 OUT_P.n1237 OUT_P.n1235 6.364
R232 OUT_P.n1131 OUT_P.n1130 6.364
R233 OUT_P.n1335 OUT_P.n2 6.364
R234 OUT_P.n32 OUT_P.n31 4.574
R235 OUT_P.n137 OUT_P.n136 4.574
R236 OUT_P.n242 OUT_P.n241 4.574
R237 OUT_P.n347 OUT_P.n346 4.574
R238 OUT_P.n822 OUT_P.n812 4.574
R239 OUT_P.n924 OUT_P.n914 4.574
R240 OUT_P.n1025 OUT_P.n1015 4.574
R241 OUT_P.n1279 OUT_P.n1278 4.574
R242 OUT_P.n1206 OUT_P.n1205 4.574
R243 OUT_P.n1307 OUT_P.n1306 4.574
R244 OUT_P.n1169 OUT_P.n1168 4.574
R245 OUT_P.n590 OUT_P.n589 4.574
R246 OUT_P.n531 OUT_P.n530 4.574
R247 OUT_P.n508 OUT_P.n507 4.574
R248 OUT_P.n450 OUT_P.n449 4.574
R249 OUT_P.n790 OUT_P.n789 4.574
R250 OUT_P.n1243 OUT_P.n1232 4.574
R251 OUT_P.n1139 OUT_P.n1138 4.574
R252 OUT_P.n636 OUT_P.n635 4.574
R253 OUT_P.n685 OUT_P.n684 4.574
R254 OUT_P.n1330 OUT_P.n1329 4.574
R255 OUT_P.n458 OUT_P.n457 4.559
R256 OUT_P.n539 OUT_P.n538 4.559
R257 OUT_P.n691 OUT_P.n667 4.559
R258 OUT_P.n795 OUT_P.n773 4.557
R259 OUT_P.n1325 OUT_P.n1324 4.554
R260 OUT_P.n1248 OUT_P.n1247 4.553
R261 OUT_P.n1211 OUT_P.n1210 4.553
R262 OUT_P.n1174 OUT_P.n1173 4.553
R263 OUT_P.n1142 OUT_P.n1126 4.553
R264 OUT_P.n1282 OUT_P.n1267 4.552
R265 OUT_P.n1310 OUT_P.n1295 4.552
R266 OUT_P.n774 vco_pair_base_0/sky130_fd_pr__rf_nfet_01v8_aM02W5p00L0p15_7/GATE 4.156
R267 OUT_P.n31 OUT_P.n29 3.388
R268 OUT_P.n136 OUT_P.n134 3.388
R269 OUT_P.n241 OUT_P.n239 3.388
R270 OUT_P.n346 OUT_P.n344 3.388
R271 OUT_P.n812 OUT_P.n811 3.388
R272 OUT_P.n914 OUT_P.n913 3.388
R273 OUT_P.n1015 OUT_P.n1014 3.388
R274 OUT_P.n15 OUT_P.t3 3.326
R275 OUT_P.n15 OUT_P.t1 3.326
R276 OUT_P.n120 OUT_P.t8 3.326
R277 OUT_P.n120 OUT_P.t10 3.326
R278 OUT_P.n225 OUT_P.t13 3.326
R279 OUT_P.n225 OUT_P.t6 3.326
R280 OUT_P.n330 OUT_P.t11 3.326
R281 OUT_P.n330 OUT_P.t7 3.326
R282 OUT_P.n814 OUT_P.t5 3.326
R283 OUT_P.n814 OUT_P.t0 3.326
R284 OUT_P.n916 OUT_P.t9 3.326
R285 OUT_P.n916 OUT_P.t4 3.326
R286 OUT_P.n1017 OUT_P.t12 3.326
R287 OUT_P.n1017 OUT_P.t2 3.326
R288 OUT_P.n593 OUT_P.n592 2.473
R289 OUT_P.n512 OUT_P.n511 2.473
R290 OUT_P.n639 OUT_P.n638 2.473
R291 OUT_P.n107 OUT_P.n89 2.473
R292 OUT_P.n338 OUT_P.n337 2.473
R293 OUT_P.n353 OUT_P.n352 2.473
R294 OUT_P.n422 OUT_P.n421 2.473
R295 OUT_P.n233 OUT_P.n232 2.473
R296 OUT_P.n248 OUT_P.n247 2.473
R297 OUT_P.n317 OUT_P.n316 2.473
R298 OUT_P.n128 OUT_P.n127 2.473
R299 OUT_P.n143 OUT_P.n142 2.473
R300 OUT_P.n212 OUT_P.n211 2.473
R301 OUT_P.n23 OUT_P.n22 2.473
R302 OUT_P.n38 OUT_P.n37 2.473
R303 OUT_P.n875 OUT_P.n874 1.813
R304 OUT_P.n976 OUT_P.n975 1.813
R305 OUT_P.n1077 OUT_P.n1076 1.813
R306 OUT_P.n1283 OUT_P.n1282 1.805
R307 OUT_P.n1311 OUT_P.n1310 1.805
R308 OUT_P.n1325 OUT_P.n1322 1.805
R309 OUT_P.n729 OUT_P.n548 1.705
R310 OUT_P.n724 OUT_P.n723 1.705
R311 OUT_P.n757 OUT_P.n467 1.705
R312 OUT_P.n752 OUT_P.n751 1.705
R313 OUT_P.n661 OUT_P.n660 1.705
R314 OUT_P.n701 OUT_P.n700 1.705
R315 OUT_P.n1322 OUT_P.n1321 1.705
R316 OUT_P.n1292 OUT_P.n1291 1.705
R317 OUT_P.n1320 OUT_P.n1319 1.705
R318 OUT_P.n668 vco_pair_base_0/sky130_fd_pr__rf_nfet_01v8_aM02W5p00L0p15_1/GATE 1.375
R319 OUT_P.n433 vco_pair_base_0/sky130_fd_pr__rf_nfet_01v8_aM02W5p00L0p15_5/GATE 1.375
R320 OUT_P.n514 vco_pair_base_0/sky130_fd_pr__rf_nfet_01v8_aM02W5p00L0p15_3/GATE 1.375
R321 OUT_P.n1265 OUT_P.n1264 1.329
R322 OUT_P.n796 OUT_P.n795 1.188
R323 OUT_P.n540 OUT_P.n539 1.187
R324 OUT_P.n459 OUT_P.n458 1.187
R325 OUT_P.n692 OUT_P.n691 1.187
R326 OUT_P.n1212 OUT_P.n1211 1.183
R327 OUT_P.n1175 OUT_P.n1174 1.183
R328 OUT_P.n1143 OUT_P.n1142 1.183
R329 OUT_P.n1249 OUT_P.n1248 1.183
R330 OUT_P.n16 OUT_P.n15 1.155
R331 OUT_P.n121 OUT_P.n120 1.155
R332 OUT_P.n226 OUT_P.n225 1.155
R333 OUT_P.n331 OUT_P.n330 1.155
R334 OUT_P.n815 OUT_P.n814 1.155
R335 OUT_P.n917 OUT_P.n916 1.155
R336 OUT_P.n1018 OUT_P.n1017 1.155
R337 OUT_P.n710 OUT_P.n709 1.137
R338 OUT_P.n738 OUT_P.n737 1.137
R339 OUT_P.n767 OUT_P.n766 1.137
R340 OUT_P.n804 OUT_P.n803 1.137
R341 OUT_P.n1256 OUT_P.n1255 1.137
R342 OUT_P.n1228 OUT_P.n1227 1.137
R343 OUT_P.n1219 OUT_P.n1218 1.137
R344 OUT_P.n1191 OUT_P.n1190 1.137
R345 OUT_P.n1182 OUT_P.n1181 1.137
R346 OUT_P.n1154 OUT_P.n1153 1.137
R347 OUT_P.n1145 OUT_P.n1144 1.137
R348 OUT_P.n647 OUT_P.n646 1.137
R349 OUT_P.n1104 OUT_P.n1103 1.133
R350 OUT_P.n1003 OUT_P.n1002 1.133
R351 OUT_P.n902 OUT_P.n901 1.133
R352 OUT_P.n1262 OUT_P.n432 1.133
R353 OUT_P.n426 OUT_P.n425 1.133
R354 OUT_P.n321 OUT_P.n320 1.133
R355 OUT_P.n216 OUT_P.n215 1.133
R356 OUT_P.n111 OUT_P.n110 1.133
R357 OUT_P.n1263 OUT_P.n11 1.133
R358 OUT_P.n1258 OUT_P.n1257 1.059
R359 OUT_P.n774 vco_pair_base_0/sky130_fd_pr__rf_nfet_01v8_aM02W5p00L0p15_7/GATE 1
R360 OUT_P.n17 OUT_P.n16 0.893
R361 OUT_P.n122 OUT_P.n121 0.893
R362 OUT_P.n227 OUT_P.n226 0.893
R363 OUT_P.n332 OUT_P.n331 0.893
R364 OUT_P.n816 OUT_P.n815 0.893
R365 OUT_P.n918 OUT_P.n917 0.893
R366 OUT_P.n1019 OUT_P.n1018 0.893
R367 OUT_P.n1123 OUT_P.n1122 0.868
R368 OUT_P.n1261 OUT_P.n1111 0.853
R369 OUT_P.n1271 OUT_P.n1270 0.77
R370 OUT_P.n441 OUT_P.n440 0.77
R371 OUT_P.n1197 OUT_P.n1196 0.77
R372 OUT_P.n488 OUT_P.n487 0.77
R373 OUT_P.n499 OUT_P.n498 0.77
R374 OUT_P.n1299 OUT_P.n1298 0.77
R375 OUT_P.n522 OUT_P.n521 0.77
R376 OUT_P.n1160 OUT_P.n1159 0.77
R377 OUT_P.n569 OUT_P.n568 0.77
R378 OUT_P.n581 OUT_P.n580 0.77
R379 OUT_P.n781 OUT_P.n780 0.77
R380 OUT_P.n1235 OUT_P.n1234 0.77
R381 OUT_P.n1130 OUT_P.n1129 0.77
R382 OUT_P.n615 OUT_P.n614 0.77
R383 OUT_P.n627 OUT_P.n626 0.77
R384 OUT_P.n676 OUT_P.n675 0.77
R385 OUT_P.n2 OUT_P.n1 0.77
R386 OUT_P.n492 vco_pair_base_0/sky130_fd_pr__rf_nfet_01v8_aM02W5p00L0p15_9/GATE 0.666
R387 OUT_P.n717 OUT_P.n716 0.65
R388 OUT_P.n654 OUT_P.n653 0.65
R389 OUT_P.n745 OUT_P.n744 0.645
R390 OUT_P.n31 OUT_P.n30 0.506
R391 OUT_P.n136 OUT_P.n135 0.506
R392 OUT_P.n241 OUT_P.n240 0.506
R393 OUT_P.n346 OUT_P.n345 0.506
R394 OUT_P.n812 OUT_P.n810 0.506
R395 OUT_P.n914 OUT_P.n912 0.506
R396 OUT_P.n1015 OUT_P.n1013 0.506
R397 OUT_P.n86 OUT_P.n85 0.476
R398 OUT_P.n208 OUT_P.n207 0.476
R399 OUT_P.n313 OUT_P.n312 0.476
R400 OUT_P.n418 OUT_P.n417 0.476
R401 OUT_P.n833 OUT_P.n832 0.476
R402 OUT_P.n934 OUT_P.n933 0.476
R403 OUT_P.n1035 OUT_P.n1034 0.476
R404 OUT_P.n1293 OUT_P.n1292 0.456
R405 OUT_P.n1321 OUT_P.n1320 0.456
R406 OUT_P.n1221 OUT_P.n1220 0.45
R407 OUT_P.n1184 OUT_P.n1183 0.45
R408 OUT_P.n1147 OUT_P.n1146 0.45
R409 OUT_P.n76 OUT_P.n75 0.445
R410 OUT_P.n197 OUT_P.n196 0.445
R411 OUT_P.n302 OUT_P.n301 0.445
R412 OUT_P.n407 OUT_P.n406 0.445
R413 OUT_P.n843 OUT_P.n842 0.445
R414 OUT_P.n945 OUT_P.n944 0.445
R415 OUT_P.n1046 OUT_P.n1045 0.445
R416 OUT_P.n1111 OUT_P.n805 0.43
R417 OUT_P.n65 OUT_P.n64 0.414
R418 OUT_P.n187 OUT_P.n186 0.414
R419 OUT_P.n292 OUT_P.n291 0.414
R420 OUT_P.n397 OUT_P.n396 0.414
R421 OUT_P.n853 OUT_P.n852 0.414
R422 OUT_P.n955 OUT_P.n954 0.414
R423 OUT_P.n1056 OUT_P.n1055 0.414
R424 OUT_P.n863 OUT_P.n862 0.382
R425 OUT_P.n965 OUT_P.n964 0.382
R426 OUT_P.n1066 OUT_P.n1065 0.382
R427 OUT_P.n731 OUT_P.n730 0.294
R428 OUT_P.n759 OUT_P.n758 0.294
R429 OUT_P.n703 OUT_P.n702 0.292
R430 OUT_P.n1109 OUT_P.n1108 0.262
R431 OUT_P.n1262 OUT_P.n1261 0.175
R432 OUT_P.n1008 OUT_P.n1007 0.163
R433 OUT_P.n907 OUT_P.n906 0.163
R434 OUT_P.n326 OUT_P.n325 0.163
R435 OUT_P.n221 OUT_P.n220 0.163
R436 OUT_P.n116 OUT_P.n115 0.163
R437 OUT_P.n431 OUT_P.n430 0.159
R438 OUT_P.n1292 OUT_P.n1265 0.088
R439 OUT_P.n1320 OUT_P.n1293 0.088
R440 OUT_P.n11 OUT_P 0.065
R441 OUT_P.n83 OUT_P.n82 0.06
R442 OUT_P.n73 OUT_P.n72 0.06
R443 OUT_P.n62 OUT_P.n61 0.06
R444 OUT_P.n54 OUT_P.n53 0.06
R445 OUT_P.n205 OUT_P.n204 0.06
R446 OUT_P.n194 OUT_P.n193 0.06
R447 OUT_P.n184 OUT_P.n183 0.06
R448 OUT_P.n176 OUT_P.n175 0.06
R449 OUT_P.n310 OUT_P.n309 0.06
R450 OUT_P.n299 OUT_P.n298 0.06
R451 OUT_P.n289 OUT_P.n288 0.06
R452 OUT_P.n281 OUT_P.n280 0.06
R453 OUT_P.n415 OUT_P.n414 0.06
R454 OUT_P.n404 OUT_P.n403 0.06
R455 OUT_P.n394 OUT_P.n393 0.06
R456 OUT_P.n386 OUT_P.n385 0.06
R457 OUT_P.n857 OUT_P.n856 0.06
R458 OUT_P.n848 OUT_P.n846 0.06
R459 OUT_P.n838 OUT_P.n836 0.06
R460 OUT_P.n959 OUT_P.n958 0.06
R461 OUT_P.n950 OUT_P.n948 0.06
R462 OUT_P.n939 OUT_P.n937 0.06
R463 OUT_P.n1060 OUT_P.n1059 0.06
R464 OUT_P.n1051 OUT_P.n1049 0.06
R465 OUT_P.n1040 OUT_P.n1038 0.06
R466 OUT_P.n1230 OUT_P.n1229 0.055
R467 OUT_P.n1193 OUT_P.n1192 0.055
R468 OUT_P.n1156 OUT_P.n1155 0.055
R469 OUT_P.n1124 OUT_P.n1123 0.055
R470 OUT_P.n825 OUT_P.n823 0.053
R471 OUT_P.n823 OUT_P.n822 0.053
R472 OUT_P.n927 OUT_P.n925 0.053
R473 OUT_P.n925 OUT_P.n924 0.053
R474 OUT_P.n1028 OUT_P.n1026 0.053
R475 OUT_P.n1026 OUT_P.n1025 0.053
R476 OUT_P.n867 OUT_P.n866 0.052
R477 OUT_P.n969 OUT_P.n968 0.052
R478 OUT_P.n1070 OUT_P.n1069 0.052
R479 OUT_P.n1141 OUT_P.n1140 0.051
R480 OUT_P.n1136 OUT_P.n1135 0.051
R481 OUT_P.n1281 OUT_P.n1280 0.051
R482 OUT_P.n1276 OUT_P.n1275 0.051
R483 OUT_P.n1208 OUT_P.n1207 0.051
R484 OUT_P.n1203 OUT_P.n1202 0.051
R485 OUT_P.n1309 OUT_P.n1308 0.051
R486 OUT_P.n1304 OUT_P.n1303 0.051
R487 OUT_P.n1171 OUT_P.n1170 0.051
R488 OUT_P.n1166 OUT_P.n1165 0.051
R489 OUT_P.n1245 OUT_P.n1244 0.051
R490 OUT_P.n1242 OUT_P.n1241 0.051
R491 OUT_P.n1327 OUT_P.n1326 0.051
R492 OUT_P.n1332 OUT_P.n1331 0.051
R493 OUT_P.n690 OUT_P.n689 0.048
R494 OUT_P.n681 OUT_P.n680 0.048
R495 OUT_P.n794 OUT_P.n793 0.048
R496 OUT_P.n786 OUT_P.n785 0.048
R497 OUT_P.n455 OUT_P.n454 0.048
R498 OUT_P.n446 OUT_P.n445 0.048
R499 OUT_P.n511 OUT_P.n491 0.048
R500 OUT_P.n504 OUT_P.n503 0.048
R501 OUT_P.n536 OUT_P.n535 0.048
R502 OUT_P.n527 OUT_P.n526 0.048
R503 OUT_P.n592 OUT_P.n573 0.048
R504 OUT_P.n586 OUT_P.n585 0.048
R505 OUT_P.n638 OUT_P.n619 0.048
R506 OUT_P.n632 OUT_P.n631 0.048
R507 OUT_P.n34 OUT_P.n33 0.045
R508 OUT_P.n87 OUT_P.n84 0.045
R509 OUT_P.n139 OUT_P.n138 0.045
R510 OUT_P.n209 OUT_P.n206 0.045
R511 OUT_P.n244 OUT_P.n243 0.045
R512 OUT_P.n314 OUT_P.n311 0.045
R513 OUT_P.n349 OUT_P.n348 0.045
R514 OUT_P.n419 OUT_P.n416 0.045
R515 OUT_P.n22 OUT_P.n21 0.043
R516 OUT_P.n56 OUT_P.n54 0.043
R517 OUT_P.n127 OUT_P.n126 0.043
R518 OUT_P.n178 OUT_P.n176 0.043
R519 OUT_P.n232 OUT_P.n231 0.043
R520 OUT_P.n283 OUT_P.n281 0.043
R521 OUT_P.n337 OUT_P.n336 0.043
R522 OUT_P.n388 OUT_P.n386 0.043
R523 OUT_P.n818 OUT_P.n817 0.043
R524 OUT_P.n920 OUT_P.n919 0.043
R525 OUT_P.n1021 OUT_P.n1020 0.043
R526 OUT_P.n1326 OUT_P.n1325 0.041
R527 OUT_P.n1282 OUT_P.n1281 0.041
R528 OUT_P.n1310 OUT_P.n1309 0.041
R529 OUT_P.n1139 OUT_P.n1136 0.04
R530 OUT_P.n835 OUT_P.n834 0.04
R531 OUT_P.n936 OUT_P.n935 0.04
R532 OUT_P.n1037 OUT_P.n1036 0.04
R533 OUT_P.n1279 OUT_P.n1276 0.04
R534 OUT_P.n1214 OUT_P.n1213 0.04
R535 OUT_P.n1206 OUT_P.n1203 0.04
R536 OUT_P.n1307 OUT_P.n1304 0.04
R537 OUT_P.n1177 OUT_P.n1176 0.04
R538 OUT_P.n1169 OUT_P.n1166 0.04
R539 OUT_P.n1243 OUT_P.n1242 0.04
R540 OUT_P.n1251 OUT_P.n1250 0.04
R541 OUT_P.n1119 OUT_P.n1118 0.04
R542 OUT_P.n1331 OUT_P.n1330 0.04
R543 OUT_P.n1248 OUT_P.n1245 0.039
R544 OUT_P.n1142 OUT_P.n1141 0.039
R545 OUT_P.n1211 OUT_P.n1208 0.039
R546 OUT_P.n1174 OUT_P.n1171 0.039
R547 OUT_P.n37 OUT_P.n36 0.038
R548 OUT_P.n142 OUT_P.n141 0.038
R549 OUT_P.n247 OUT_P.n246 0.038
R550 OUT_P.n352 OUT_P.n351 0.038
R551 OUT_P.n1140 OUT_P.n1139 0.038
R552 OUT_P.n1280 OUT_P.n1279 0.038
R553 OUT_P.n1215 OUT_P.n1214 0.038
R554 OUT_P.n1207 OUT_P.n1206 0.038
R555 OUT_P.n1308 OUT_P.n1307 0.038
R556 OUT_P.n1178 OUT_P.n1177 0.038
R557 OUT_P.n1170 OUT_P.n1169 0.038
R558 OUT_P.n1244 OUT_P.n1243 0.038
R559 OUT_P.n1252 OUT_P.n1251 0.038
R560 OUT_P.n1118 OUT_P.n1117 0.038
R561 OUT_P.n1330 OUT_P.n1327 0.038
R562 OUT_P.n63 OUT_P.n62 0.036
R563 OUT_P.n185 OUT_P.n184 0.036
R564 OUT_P.n290 OUT_P.n289 0.036
R565 OUT_P.n395 OUT_P.n394 0.036
R566 OUT_P.n856 OUT_P.n855 0.036
R567 OUT_P.n958 OUT_P.n957 0.036
R568 OUT_P.n1059 OUT_P.n1058 0.036
R569 OUT_P.n1275 OUT_P.n1274 0.036
R570 OUT_P.n1303 OUT_P.n1302 0.036
R571 OUT_P.n1333 OUT_P.n1332 0.036
R572 OUT_P.n1216 OUT_P.n1215 0.034
R573 OUT_P.n1179 OUT_P.n1178 0.034
R574 OUT_P.n1253 OUT_P.n1252 0.034
R575 OUT_P.n1117 OUT_P.n1116 0.034
R576 OUT_P.n1135 OUT_P.n1134 0.033
R577 OUT_P.n1202 OUT_P.n1201 0.033
R578 OUT_P.n1165 OUT_P.n1164 0.033
R579 OUT_P.n1241 OUT_P.n1240 0.033
R580 OUT_P.n1120 OUT_P.n1119 0.033
R581 OUT_P.n688 OUT_P.n687 0.032
R582 OUT_P.n793 OUT_P.n792 0.032
R583 OUT_P.n453 OUT_P.n452 0.032
R584 OUT_P.n511 OUT_P.n510 0.032
R585 OUT_P.n534 OUT_P.n533 0.032
R586 OUT_P.n545 OUT_P.n544 0.032
R587 OUT_P.n512 OUT_P.n480 0.032
R588 OUT_P.n464 OUT_P.n463 0.032
R589 OUT_P.n801 OUT_P.n800 0.032
R590 OUT_P.n697 OUT_P.n696 0.032
R591 OUT_P.n691 OUT_P.n690 0.031
R592 OUT_P.n458 OUT_P.n455 0.031
R593 OUT_P.n539 OUT_P.n536 0.031
R594 OUT_P.n80 OUT_P.n78 0.031
R595 OUT_P.n202 OUT_P.n200 0.031
R596 OUT_P.n307 OUT_P.n305 0.031
R597 OUT_P.n412 OUT_P.n410 0.031
R598 OUT_P.n872 OUT_P.n870 0.031
R599 OUT_P.n841 OUT_P.n840 0.031
R600 OUT_P.n831 OUT_P.n829 0.031
R601 OUT_P.n973 OUT_P.n972 0.031
R602 OUT_P.n943 OUT_P.n941 0.031
R603 OUT_P.n932 OUT_P.n931 0.031
R604 OUT_P.n1074 OUT_P.n1073 0.031
R605 OUT_P.n1044 OUT_P.n1042 0.031
R606 OUT_P.n1033 OUT_P.n1032 0.031
R607 OUT_P.n795 OUT_P.n794 0.031
R608 OUT_P.n592 OUT_P.n591 0.03
R609 OUT_P.n590 OUT_P.n587 0.03
R610 OUT_P.n593 OUT_P.n562 0.03
R611 OUT_P.n561 OUT_P.n560 0.03
R612 OUT_P.n638 OUT_P.n637 0.03
R613 OUT_P.n636 OUT_P.n633 0.03
R614 OUT_P.n639 OUT_P.n608 0.03
R615 OUT_P.n607 OUT_P.n606 0.03
R616 OUT_P.n1131 OUT_P.n1127 0.029
R617 OUT_P.n1198 OUT_P.n1194 0.029
R618 OUT_P.n1161 OUT_P.n1157 0.029
R619 OUT_P.n1237 OUT_P.n1236 0.029
R620 OUT_P.n1272 OUT_P.n1268 0.028
R621 OUT_P.n1300 OUT_P.n1296 0.028
R622 OUT_P.n1336 OUT_P.n1335 0.028
R623 OUT_P.n685 OUT_P.n682 0.028
R624 OUT_P.n866 OUT_P.n865 0.028
R625 OUT_P.n968 OUT_P.n967 0.028
R626 OUT_P.n1069 OUT_P.n1068 0.028
R627 OUT_P.n450 OUT_P.n447 0.028
R628 OUT_P.n531 OUT_P.n528 0.028
R629 OUT_P.n513 OUT_P.n512 0.028
R630 OUT_P.n802 OUT_P.n801 0.028
R631 OUT_P.n1122 OUT_P.n1121 0.027
R632 OUT_P.n1218 OUT_P.n1217 0.027
R633 OUT_P.n1181 OUT_P.n1180 0.027
R634 OUT_P.n1255 OUT_P.n1254 0.027
R635 OUT_P.n77 OUT_P.n74 0.026
R636 OUT_P.n74 OUT_P.n73 0.026
R637 OUT_P.n70 OUT_P.n68 0.026
R638 OUT_P.n60 OUT_P.n58 0.026
R639 OUT_P.n198 OUT_P.n195 0.026
R640 OUT_P.n195 OUT_P.n194 0.026
R641 OUT_P.n191 OUT_P.n189 0.026
R642 OUT_P.n182 OUT_P.n180 0.026
R643 OUT_P.n303 OUT_P.n300 0.026
R644 OUT_P.n300 OUT_P.n299 0.026