* NGSPICE file created from vco_pmirr_pex.ext - technology: sky130B

.subckt vco_pmirr_pex VBIAS IND_CT VDD GND
X0 vco_pmirr_base_0/rf_pfet_01v8_aM02W3p00L0p15_5/GATE.t4 vco_pmirr_base_0/rf_pfet_01v8_aM02W3p00L0p15_5/GATE.t3 VDD.t66 VDD.t31 sky130_fd_pr__pfet_01v8 ad=0p pd=0u as=0p ps=0u w=3.01e+06u l=150000u
X1 VDD VDD.t37 VDD VDD.t1 sky130_fd_pr__pfet_01v8 ad=2.78124e+13p pd=2.1714e+08u as=0p ps=0u w=3.01e+06u l=150000u
X2 VDD.t65 vco_pmirr_base_0/rf_pfet_01v8_aM02W3p00L0p15_5/GATE.t5 IND_CT.t15 VDD.t53 sky130_fd_pr__pfet_01v8 ad=0p pd=0u as=0p ps=0u w=3.01e+06u l=150000u
X3 VDD.t36 VDD.t34 VDD.t35 VDD.t18 sky130_fd_pr__pfet_01v8 ad=0p pd=0u as=0p ps=0u w=3.01e+06u l=150000u
X4 VDD.t33 VDD.t30 VDD.t32 VDD.t31 sky130_fd_pr__pfet_01v8 ad=0p pd=0u as=0p ps=0u w=3.01e+06u l=150000u
X5 IND_CT.t14 vco_pmirr_base_0/rf_pfet_01v8_aM02W3p00L0p15_5/GATE.t6 VDD.t64 VDD.t41 sky130_fd_pr__pfet_01v8 ad=0p pd=0u as=0p ps=0u w=3.01e+06u l=150000u
X6 VDD VDD.t25 VDD VDD.t26 sky130_fd_pr__pfet_01v8 ad=0p pd=0u as=0p ps=0u w=3.01e+06u l=150000u
X7 VDD.t63 vco_pmirr_base_0/rf_pfet_01v8_aM02W3p00L0p15_5/GATE.t1 vco_pmirr_base_0/rf_pfet_01v8_aM02W3p00L0p15_5/GATE.t2 VDD.t26 sky130_fd_pr__pfet_01v8 ad=0p pd=0u as=0p ps=0u w=3.01e+06u l=150000u
X8 IND_CT.t13 vco_pmirr_base_0/rf_pfet_01v8_aM02W3p00L0p15_5/GATE.t7 VDD.t62 VDD.t55 sky130_fd_pr__pfet_01v8 ad=0p pd=0u as=0p ps=0u w=3.01e+06u l=150000u
X9 IND_CT.t12 vco_pmirr_base_0/rf_pfet_01v8_aM02W3p00L0p15_5/GATE.t8 VDD.t61 VDD.t59 sky130_fd_pr__pfet_01v8 ad=0p pd=0u as=0p ps=0u w=3.01e+06u l=150000u
X10 VDD VDD.t21 VDD VDD.t13 sky130_fd_pr__pfet_01v8 ad=0p pd=0u as=0p ps=0u w=3.01e+06u l=150000u
X11 VBIAS.t0 vco_pmirr_base_0/rf_pfet_01v8_aM02W3p00L0p15_5/GATE.t0 GND.t0 sky130_fd_pr__res_high_po_2p85 l=3.5e+06u
X12 IND_CT.t11 vco_pmirr_base_0/rf_pfet_01v8_aM02W3p00L0p15_5/GATE.t9 VDD.t60 VDD.t59 sky130_fd_pr__pfet_01v8 ad=0p pd=0u as=0p ps=0u w=3.01e+06u l=150000u
X13 VDD.t58 vco_pmirr_base_0/rf_pfet_01v8_aM02W3p00L0p15_5/GATE.t10 IND_CT.t10 VDD.t46 sky130_fd_pr__pfet_01v8 ad=0p pd=0u as=0p ps=0u w=3.01e+06u l=150000u
X14 VDD.t57 vco_pmirr_base_0/rf_pfet_01v8_aM02W3p00L0p15_5/GATE.t11 IND_CT.t9 VDD.t50 sky130_fd_pr__pfet_01v8 ad=0p pd=0u as=0p ps=0u w=3.01e+06u l=150000u
X15 IND_CT.t8 vco_pmirr_base_0/rf_pfet_01v8_aM02W3p00L0p15_5/GATE.t12 VDD.t56 VDD.t55 sky130_fd_pr__pfet_01v8 ad=0p pd=0u as=0p ps=0u w=3.01e+06u l=150000u
X16 VDD.t54 vco_pmirr_base_0/rf_pfet_01v8_aM02W3p00L0p15_5/GATE.t13 IND_CT.t7 VDD.t53 sky130_fd_pr__pfet_01v8 ad=0p pd=0u as=0p ps=0u w=3.01e+06u l=150000u
X17 VDD.t51 vco_pmirr_base_0/rf_pfet_01v8_aM02W3p00L0p15_5/GATE.t14 IND_CT.t6 VDD.t50 sky130_fd_pr__pfet_01v8 ad=0p pd=0u as=0p ps=0u w=3.01e+06u l=150000u
X18 VDD.t52 vco_pmirr_base_0/rf_pfet_01v8_aM02W3p00L0p15_5/GATE.t15 IND_CT.t5 VDD.t48 sky130_fd_pr__pfet_01v8 ad=0p pd=0u as=0p ps=0u w=3.01e+06u l=150000u
X19 VDD.t49 vco_pmirr_base_0/rf_pfet_01v8_aM02W3p00L0p15_5/GATE.t16 IND_CT.t4 VDD.t48 sky130_fd_pr__pfet_01v8 ad=0p pd=0u as=0p ps=0u w=3.01e+06u l=150000u
X20 VDD.t20 VDD.t17 VDD.t19 VDD.t18 sky130_fd_pr__pfet_01v8 ad=0p pd=0u as=0p ps=0u w=3.01e+06u l=150000u
X21 VDD.t47 vco_pmirr_base_0/rf_pfet_01v8_aM02W3p00L0p15_5/GATE.t17 IND_CT.t3 VDD.t46 sky130_fd_pr__pfet_01v8 ad=0p pd=0u as=0p ps=0u w=3.01e+06u l=150000u
X22 IND_CT.t2 vco_pmirr_base_0/rf_pfet_01v8_aM02W3p00L0p15_5/GATE.t18 VDD.t45 VDD.t43 sky130_fd_pr__pfet_01v8 ad=0p pd=0u as=0p ps=0u w=3.01e+06u l=150000u
X23 VDD VDD.t12 VDD VDD.t13 sky130_fd_pr__pfet_01v8 ad=0p pd=0u as=0p ps=0u w=3.01e+06u l=150000u
X24 VDD.t11 VDD.t9 VDD.t10 VDD.t6 sky130_fd_pr__pfet_01v8 ad=0p pd=0u as=0p ps=0u w=3.01e+06u l=150000u
X25 IND_CT.t1 vco_pmirr_base_0/rf_pfet_01v8_aM02W3p00L0p15_5/GATE.t19 VDD.t44 VDD.t43 sky130_fd_pr__pfet_01v8 ad=0p pd=0u as=0p ps=0u w=3.01e+06u l=150000u
X26 IND_CT.t0 vco_pmirr_base_0/rf_pfet_01v8_aM02W3p00L0p15_5/GATE.t20 VDD.t42 VDD.t41 sky130_fd_pr__pfet_01v8 ad=0p pd=0u as=0p ps=0u w=3.01e+06u l=150000u
X27 VDD.t8 VDD.t5 VDD.t7 VDD.t6 sky130_fd_pr__pfet_01v8 ad=0p pd=0u as=0p ps=0u w=3.01e+06u l=150000u
X28 VDD VDD.t0 VDD VDD.t1 sky130_fd_pr__pfet_01v8 ad=0p pd=0u as=0p ps=0u w=3.01e+06u l=150000u
C0 vco_pmirr_base_0/rf_pfet_01v8_aM02W3p00L0p15_5/GATE IND_CT 9.77fF
C1 VDD VBIAS 0.52fF
C2 vco_pmirr_base_0/rf_pfet_01v8_aM02W3p00L0p15_5/GATE VBIAS 0.69fF
C3 VDD vco_pmirr_base_0/rf_pfet_01v8_aM02W3p00L0p15_5/GATE 22.87fF
C4 IND_CT VBIAS 0.01fF
C5 VDD IND_CT 23.96fF
R0 vco_pmirr_base_0/rf_pfet_01v8_aM02W3p00L0p15_5/GATE.n54 vco_pmirr_base_0/rf_pfet_01v8_aM02W3p00L0p15_5/GATE.t3 535.019
R1 vco_pmirr_base_0/rf_pfet_01v8_aM02W3p00L0p15_5/GATE.n67 vco_pmirr_base_0/rf_pfet_01v8_aM02W3p00L0p15_5/GATE.t1 535.019
R2 vco_pmirr_base_0/rf_pfet_01v8_aM02W3p00L0p15_5/GATE.n943 vco_pmirr_base_0/rf_pfet_01v8_aM02W3p00L0p15_5/GATE.t15 535.019
R3 vco_pmirr_base_0/rf_pfet_01v8_aM02W3p00L0p15_5/GATE.n964 vco_pmirr_base_0/rf_pfet_01v8_aM02W3p00L0p15_5/GATE.t6 535.019
R4 vco_pmirr_base_0/rf_pfet_01v8_aM02W3p00L0p15_5/GATE.n905 vco_pmirr_base_0/rf_pfet_01v8_aM02W3p00L0p15_5/GATE.t5 535.019
R5 vco_pmirr_base_0/rf_pfet_01v8_aM02W3p00L0p15_5/GATE.n926 vco_pmirr_base_0/rf_pfet_01v8_aM02W3p00L0p15_5/GATE.t19 535.019
R6 vco_pmirr_base_0/rf_pfet_01v8_aM02W3p00L0p15_5/GATE.n1000 vco_pmirr_base_0/rf_pfet_01v8_aM02W3p00L0p15_5/GATE.t12 535.019
R7 vco_pmirr_base_0/rf_pfet_01v8_aM02W3p00L0p15_5/GATE.n981 vco_pmirr_base_0/rf_pfet_01v8_aM02W3p00L0p15_5/GATE.t17 535.019
R8 vco_pmirr_base_0/rf_pfet_01v8_aM02W3p00L0p15_5/GATE.n438 vco_pmirr_base_0/rf_pfet_01v8_aM02W3p00L0p15_5/GATE.t16 535.019
R9 vco_pmirr_base_0/rf_pfet_01v8_aM02W3p00L0p15_5/GATE.n459 vco_pmirr_base_0/rf_pfet_01v8_aM02W3p00L0p15_5/GATE.t20 535.019
R10 vco_pmirr_base_0/rf_pfet_01v8_aM02W3p00L0p15_5/GATE.n385 vco_pmirr_base_0/rf_pfet_01v8_aM02W3p00L0p15_5/GATE.t13 535.019
R11 vco_pmirr_base_0/rf_pfet_01v8_aM02W3p00L0p15_5/GATE.n406 vco_pmirr_base_0/rf_pfet_01v8_aM02W3p00L0p15_5/GATE.t18 535.019
R12 vco_pmirr_base_0/rf_pfet_01v8_aM02W3p00L0p15_5/GATE.n510 vco_pmirr_base_0/rf_pfet_01v8_aM02W3p00L0p15_5/GATE.t7 535.019
R13 vco_pmirr_base_0/rf_pfet_01v8_aM02W3p00L0p15_5/GATE.n491 vco_pmirr_base_0/rf_pfet_01v8_aM02W3p00L0p15_5/GATE.t10 535.019
R14 vco_pmirr_base_0/rf_pfet_01v8_aM02W3p00L0p15_5/GATE.n346 vco_pmirr_base_0/rf_pfet_01v8_aM02W3p00L0p15_5/GATE.t11 535.019
R15 vco_pmirr_base_0/rf_pfet_01v8_aM02W3p00L0p15_5/GATE.n328 vco_pmirr_base_0/rf_pfet_01v8_aM02W3p00L0p15_5/GATE.t9 535.019
R16 vco_pmirr_base_0/rf_pfet_01v8_aM02W3p00L0p15_5/GATE.n880 vco_pmirr_base_0/rf_pfet_01v8_aM02W3p00L0p15_5/GATE.t14 535.019
R17 vco_pmirr_base_0/rf_pfet_01v8_aM02W3p00L0p15_5/GATE.n862 vco_pmirr_base_0/rf_pfet_01v8_aM02W3p00L0p15_5/GATE.t8 535.019
R18 vco_pmirr_base_0/rf_pfet_01v8_aM02W3p00L0p15_5/GATE.n68 vco_pmirr_base_0/rf_pfet_01v8_aM02W3p00L0p15_5/GATE.n67 25.02
R19 vco_pmirr_base_0/rf_pfet_01v8_aM02W3p00L0p15_5/GATE.n258 vco_pmirr_base_0/rf_pfet_01v8_aM02W3p00L0p15_5/GATE.n257 24.875
R20 vco_pmirr_base_0/rf_pfet_01v8_aM02W3p00L0p15_5/GATE.n206 vco_pmirr_base_0/rf_pfet_01v8_aM02W3p00L0p15_5/GATE.n205 24.875
R21 vco_pmirr_base_0/rf_pfet_01v8_aM02W3p00L0p15_5/GATE.n154 vco_pmirr_base_0/rf_pfet_01v8_aM02W3p00L0p15_5/GATE.n153 24.875
R22 vco_pmirr_base_0/rf_pfet_01v8_aM02W3p00L0p15_5/GATE.n675 vco_pmirr_base_0/rf_pfet_01v8_aM02W3p00L0p15_5/GATE.n674 24.875
R23 vco_pmirr_base_0/rf_pfet_01v8_aM02W3p00L0p15_5/GATE.n781 vco_pmirr_base_0/rf_pfet_01v8_aM02W3p00L0p15_5/GATE.n780 24.875
R24 vco_pmirr_base_0/rf_pfet_01v8_aM02W3p00L0p15_5/GATE.n439 vco_pmirr_base_0/rf_pfet_01v8_aM02W3p00L0p15_5/GATE.n438 24.875
R25 vco_pmirr_base_0/rf_pfet_01v8_aM02W3p00L0p15_5/GATE.n386 vco_pmirr_base_0/rf_pfet_01v8_aM02W3p00L0p15_5/GATE.n385 24.875
R26 vco_pmirr_base_0/rf_pfet_01v8_aM02W3p00L0p15_5/GATE.n492 vco_pmirr_base_0/rf_pfet_01v8_aM02W3p00L0p15_5/GATE.n491 24.875
R27 vco_pmirr_base_0/rf_pfet_01v8_aM02W3p00L0p15_5/GATE.n728 vco_pmirr_base_0/rf_pfet_01v8_aM02W3p00L0p15_5/GATE.n727 24.875
R28 vco_pmirr_base_0/rf_pfet_01v8_aM02W3p00L0p15_5/GATE.n622 vco_pmirr_base_0/rf_pfet_01v8_aM02W3p00L0p15_5/GATE.n621 24.875
R29 vco_pmirr_base_0/rf_pfet_01v8_aM02W3p00L0p15_5/GATE.n906 vco_pmirr_base_0/rf_pfet_01v8_aM02W3p00L0p15_5/GATE.n905 24.733
R30 vco_pmirr_base_0/rf_pfet_01v8_aM02W3p00L0p15_5/GATE.n944 vco_pmirr_base_0/rf_pfet_01v8_aM02W3p00L0p15_5/GATE.n943 24.733
R31 vco_pmirr_base_0/rf_pfet_01v8_aM02W3p00L0p15_5/GATE.n982 vco_pmirr_base_0/rf_pfet_01v8_aM02W3p00L0p15_5/GATE.n981 24.733
R32 vco_pmirr_base_0/rf_pfet_01v8_aM02W3p00L0p15_5/GATE.n56 vco_pmirr_base_0/rf_pfet_01v8_aM02W3p00L0p15_5/GATE.n55 20.259
R33 vco_pmirr_base_0/rf_pfet_01v8_aM02W3p00L0p15_5/GATE.n697 vco_pmirr_base_0/rf_pfet_01v8_aM02W3p00L0p15_5/GATE.n696 20.259
R34 vco_pmirr_base_0/rf_pfet_01v8_aM02W3p00L0p15_5/GATE.n750 vco_pmirr_base_0/rf_pfet_01v8_aM02W3p00L0p15_5/GATE.n747 20.259
R35 vco_pmirr_base_0/rf_pfet_01v8_aM02W3p00L0p15_5/GATE.n966 vco_pmirr_base_0/rf_pfet_01v8_aM02W3p00L0p15_5/GATE.n965 20.259
R36 vco_pmirr_base_0/rf_pfet_01v8_aM02W3p00L0p15_5/GATE.n644 vco_pmirr_base_0/rf_pfet_01v8_aM02W3p00L0p15_5/GATE.n641 20.259
R37 vco_pmirr_base_0/rf_pfet_01v8_aM02W3p00L0p15_5/GATE.n928 vco_pmirr_base_0/rf_pfet_01v8_aM02W3p00L0p15_5/GATE.n927 20.259
R38 vco_pmirr_base_0/rf_pfet_01v8_aM02W3p00L0p15_5/GATE.n1004 vco_pmirr_base_0/rf_pfet_01v8_aM02W3p00L0p15_5/GATE.n1001 20.259
R39 vco_pmirr_base_0/rf_pfet_01v8_aM02W3p00L0p15_5/GATE.n803 vco_pmirr_base_0/rf_pfet_01v8_aM02W3p00L0p15_5/GATE.n802 20.259
R40 vco_pmirr_base_0/rf_pfet_01v8_aM02W3p00L0p15_5/GATE.n227 vco_pmirr_base_0/rf_pfet_01v8_aM02W3p00L0p15_5/GATE.n224 20.259
R41 vco_pmirr_base_0/rf_pfet_01v8_aM02W3p00L0p15_5/GATE.n461 vco_pmirr_base_0/rf_pfet_01v8_aM02W3p00L0p15_5/GATE.n460 20.259
R42 vco_pmirr_base_0/rf_pfet_01v8_aM02W3p00L0p15_5/GATE.n175 vco_pmirr_base_0/rf_pfet_01v8_aM02W3p00L0p15_5/GATE.n172 20.259
R43 vco_pmirr_base_0/rf_pfet_01v8_aM02W3p00L0p15_5/GATE.n408 vco_pmirr_base_0/rf_pfet_01v8_aM02W3p00L0p15_5/GATE.n407 20.259
R44 vco_pmirr_base_0/rf_pfet_01v8_aM02W3p00L0p15_5/GATE.n514 vco_pmirr_base_0/rf_pfet_01v8_aM02W3p00L0p15_5/GATE.n511 20.259
R45 vco_pmirr_base_0/rf_pfet_01v8_aM02W3p00L0p15_5/GATE.n279 vco_pmirr_base_0/rf_pfet_01v8_aM02W3p00L0p15_5/GATE.n278 20.259
R46 vco_pmirr_base_0/rf_pfet_01v8_aM02W3p00L0p15_5/GATE.n116 vco_pmirr_base_0/rf_pfet_01v8_aM02W3p00L0p15_5/GATE.n115 20.259
R47 vco_pmirr_base_0/rf_pfet_01v8_aM02W3p00L0p15_5/GATE.n98 vco_pmirr_base_0/rf_pfet_01v8_aM02W3p00L0p15_5/GATE.n95 20.259
R48 vco_pmirr_base_0/rf_pfet_01v8_aM02W3p00L0p15_5/GATE.n348 vco_pmirr_base_0/rf_pfet_01v8_aM02W3p00L0p15_5/GATE.n347 20.259
R49 vco_pmirr_base_0/rf_pfet_01v8_aM02W3p00L0p15_5/GATE.n330 vco_pmirr_base_0/rf_pfet_01v8_aM02W3p00L0p15_5/GATE.n329 20.259
R50 vco_pmirr_base_0/rf_pfet_01v8_aM02W3p00L0p15_5/GATE.n584 vco_pmirr_base_0/rf_pfet_01v8_aM02W3p00L0p15_5/GATE.n583 20.259
R51 vco_pmirr_base_0/rf_pfet_01v8_aM02W3p00L0p15_5/GATE.n566 vco_pmirr_base_0/rf_pfet_01v8_aM02W3p00L0p15_5/GATE.n563 20.259
R52 vco_pmirr_base_0/rf_pfet_01v8_aM02W3p00L0p15_5/GATE.n882 vco_pmirr_base_0/rf_pfet_01v8_aM02W3p00L0p15_5/GATE.n881 20.259
R53 vco_pmirr_base_0/rf_pfet_01v8_aM02W3p00L0p15_5/GATE.n864 vco_pmirr_base_0/rf_pfet_01v8_aM02W3p00L0p15_5/GATE.n863 20.259
R54 vco_pmirr_base_0/rf_pfet_01v8_aM02W3p00L0p15_5/GATE.n686 vco_pmirr_base_0/rf_pfet_01v8_aM02W3p00L0p15_5/GATE.n685 9.3
R55 vco_pmirr_base_0/rf_pfet_01v8_aM02W3p00L0p15_5/GATE.n689 vco_pmirr_base_0/rf_pfet_01v8_aM02W3p00L0p15_5/GATE.n688 9.3
R56 vco_pmirr_base_0/rf_pfet_01v8_aM02W3p00L0p15_5/GATE.n739 vco_pmirr_base_0/rf_pfet_01v8_aM02W3p00L0p15_5/GATE.n738 9.3
R57 vco_pmirr_base_0/rf_pfet_01v8_aM02W3p00L0p15_5/GATE.n742 vco_pmirr_base_0/rf_pfet_01v8_aM02W3p00L0p15_5/GATE.n741 9.3
R58 vco_pmirr_base_0/rf_pfet_01v8_aM02W3p00L0p15_5/GATE.n633 vco_pmirr_base_0/rf_pfet_01v8_aM02W3p00L0p15_5/GATE.n632 9.3
R59 vco_pmirr_base_0/rf_pfet_01v8_aM02W3p00L0p15_5/GATE.n636 vco_pmirr_base_0/rf_pfet_01v8_aM02W3p00L0p15_5/GATE.n635 9.3
R60 vco_pmirr_base_0/rf_pfet_01v8_aM02W3p00L0p15_5/GATE.n792 vco_pmirr_base_0/rf_pfet_01v8_aM02W3p00L0p15_5/GATE.n791 9.3
R61 vco_pmirr_base_0/rf_pfet_01v8_aM02W3p00L0p15_5/GATE.n795 vco_pmirr_base_0/rf_pfet_01v8_aM02W3p00L0p15_5/GATE.n794 9.3
R62 vco_pmirr_base_0/rf_pfet_01v8_aM02W3p00L0p15_5/GATE.n217 vco_pmirr_base_0/rf_pfet_01v8_aM02W3p00L0p15_5/GATE.n216 9.3
R63 vco_pmirr_base_0/rf_pfet_01v8_aM02W3p00L0p15_5/GATE.n220 vco_pmirr_base_0/rf_pfet_01v8_aM02W3p00L0p15_5/GATE.n219 9.3
R64 vco_pmirr_base_0/rf_pfet_01v8_aM02W3p00L0p15_5/GATE.n453 vco_pmirr_base_0/rf_pfet_01v8_aM02W3p00L0p15_5/GATE.n452 9.3
R65 vco_pmirr_base_0/rf_pfet_01v8_aM02W3p00L0p15_5/GATE.n450 vco_pmirr_base_0/rf_pfet_01v8_aM02W3p00L0p15_5/GATE.n449 9.3
R66 vco_pmirr_base_0/rf_pfet_01v8_aM02W3p00L0p15_5/GATE.n165 vco_pmirr_base_0/rf_pfet_01v8_aM02W3p00L0p15_5/GATE.n164 9.3
R67 vco_pmirr_base_0/rf_pfet_01v8_aM02W3p00L0p15_5/GATE.n168 vco_pmirr_base_0/rf_pfet_01v8_aM02W3p00L0p15_5/GATE.n167 9.3
R68 vco_pmirr_base_0/rf_pfet_01v8_aM02W3p00L0p15_5/GATE.n400 vco_pmirr_base_0/rf_pfet_01v8_aM02W3p00L0p15_5/GATE.n399 9.3
R69 vco_pmirr_base_0/rf_pfet_01v8_aM02W3p00L0p15_5/GATE.n397 vco_pmirr_base_0/rf_pfet_01v8_aM02W3p00L0p15_5/GATE.n396 9.3
R70 vco_pmirr_base_0/rf_pfet_01v8_aM02W3p00L0p15_5/GATE.n503 vco_pmirr_base_0/rf_pfet_01v8_aM02W3p00L0p15_5/GATE.n502 9.3
R71 vco_pmirr_base_0/rf_pfet_01v8_aM02W3p00L0p15_5/GATE.n506 vco_pmirr_base_0/rf_pfet_01v8_aM02W3p00L0p15_5/GATE.n505 9.3
R72 vco_pmirr_base_0/rf_pfet_01v8_aM02W3p00L0p15_5/GATE.n269 vco_pmirr_base_0/rf_pfet_01v8_aM02W3p00L0p15_5/GATE.n268 9.3
R73 vco_pmirr_base_0/rf_pfet_01v8_aM02W3p00L0p15_5/GATE.n272 vco_pmirr_base_0/rf_pfet_01v8_aM02W3p00L0p15_5/GATE.n271 9.3
R74 vco_pmirr_base_0/rf_pfet_01v8_aM02W3p00L0p15_5/GATE.n11 vco_pmirr_base_0/rf_pfet_01v8_aM02W3p00L0p15_5/GATE.n10 9.3
R75 vco_pmirr_base_0/rf_pfet_01v8_aM02W3p00L0p15_5/GATE.n42 vco_pmirr_base_0/rf_pfet_01v8_aM02W3p00L0p15_5/GATE.n41 9.3
R76 vco_pmirr_base_0/rf_pfet_01v8_aM02W3p00L0p15_5/GATE.n27 vco_pmirr_base_0/rf_pfet_01v8_aM02W3p00L0p15_5/GATE.n26 9.3
R77 vco_pmirr_base_0/rf_pfet_01v8_aM02W3p00L0p15_5/GATE.n13 vco_pmirr_base_0/rf_pfet_01v8_aM02W3p00L0p15_5/GATE.n12 9.3
R78 vco_pmirr_base_0/rf_pfet_01v8_aM02W3p00L0p15_5/GATE.n31 vco_pmirr_base_0/rf_pfet_01v8_aM02W3p00L0p15_5/GATE.n30 9.3
R79 vco_pmirr_base_0/rf_pfet_01v8_aM02W3p00L0p15_5/GATE.n17 vco_pmirr_base_0/rf_pfet_01v8_aM02W3p00L0p15_5/GATE.n16 9.3
R80 vco_pmirr_base_0/rf_pfet_01v8_aM02W3p00L0p15_5/GATE.n45 vco_pmirr_base_0/rf_pfet_01v8_aM02W3p00L0p15_5/GATE.n44 9.3
R81 vco_pmirr_base_0/rf_pfet_01v8_aM02W3p00L0p15_5/GATE.n3 vco_pmirr_base_0/rf_pfet_01v8_aM02W3p00L0p15_5/GATE.t2 9.162
R82 vco_pmirr_base_0/rf_pfet_01v8_aM02W3p00L0p15_5/GATE.n3 vco_pmirr_base_0/rf_pfet_01v8_aM02W3p00L0p15_5/GATE.t4 9.162
R83 vco_pmirr_base_0/rf_pfet_01v8_aM02W3p00L0p15_5/GATE.n684 vco_pmirr_base_0/rf_pfet_01v8_aM02W3p00L0p15_5/GATE.n683 9
R84 vco_pmirr_base_0/rf_pfet_01v8_aM02W3p00L0p15_5/GATE.n691 vco_pmirr_base_0/rf_pfet_01v8_aM02W3p00L0p15_5/GATE.n690 9
R85 vco_pmirr_base_0/rf_pfet_01v8_aM02W3p00L0p15_5/GATE.n737 vco_pmirr_base_0/rf_pfet_01v8_aM02W3p00L0p15_5/GATE.n736 9
R86 vco_pmirr_base_0/rf_pfet_01v8_aM02W3p00L0p15_5/GATE.n744 vco_pmirr_base_0/rf_pfet_01v8_aM02W3p00L0p15_5/GATE.n743 9
R87 vco_pmirr_base_0/rf_pfet_01v8_aM02W3p00L0p15_5/GATE.n960 vco_pmirr_base_0/rf_pfet_01v8_aM02W3p00L0p15_5/GATE.n959 9
R88 vco_pmirr_base_0/rf_pfet_01v8_aM02W3p00L0p15_5/GATE.n952 vco_pmirr_base_0/rf_pfet_01v8_aM02W3p00L0p15_5/GATE.n951 9
R89 vco_pmirr_base_0/rf_pfet_01v8_aM02W3p00L0p15_5/GATE.n631 vco_pmirr_base_0/rf_pfet_01v8_aM02W3p00L0p15_5/GATE.n630 9
R90 vco_pmirr_base_0/rf_pfet_01v8_aM02W3p00L0p15_5/GATE.n638 vco_pmirr_base_0/rf_pfet_01v8_aM02W3p00L0p15_5/GATE.n637 9
R91 vco_pmirr_base_0/rf_pfet_01v8_aM02W3p00L0p15_5/GATE.n922 vco_pmirr_base_0/rf_pfet_01v8_aM02W3p00L0p15_5/GATE.n921 9
R92 vco_pmirr_base_0/rf_pfet_01v8_aM02W3p00L0p15_5/GATE.n914 vco_pmirr_base_0/rf_pfet_01v8_aM02W3p00L0p15_5/GATE.n908 9
R93 vco_pmirr_base_0/rf_pfet_01v8_aM02W3p00L0p15_5/GATE.n998 vco_pmirr_base_0/rf_pfet_01v8_aM02W3p00L0p15_5/GATE.n997 9
R94 vco_pmirr_base_0/rf_pfet_01v8_aM02W3p00L0p15_5/GATE.n990 vco_pmirr_base_0/rf_pfet_01v8_aM02W3p00L0p15_5/GATE.n989 9
R95 vco_pmirr_base_0/rf_pfet_01v8_aM02W3p00L0p15_5/GATE.n790 vco_pmirr_base_0/rf_pfet_01v8_aM02W3p00L0p15_5/GATE.n789 9
R96 vco_pmirr_base_0/rf_pfet_01v8_aM02W3p00L0p15_5/GATE.n797 vco_pmirr_base_0/rf_pfet_01v8_aM02W3p00L0p15_5/GATE.n796 9
R97 vco_pmirr_base_0/rf_pfet_01v8_aM02W3p00L0p15_5/GATE.n215 vco_pmirr_base_0/rf_pfet_01v8_aM02W3p00L0p15_5/GATE.n214 9
R98 vco_pmirr_base_0/rf_pfet_01v8_aM02W3p00L0p15_5/GATE.n222 vco_pmirr_base_0/rf_pfet_01v8_aM02W3p00L0p15_5/GATE.n221 9
R99 vco_pmirr_base_0/rf_pfet_01v8_aM02W3p00L0p15_5/GATE.n448 vco_pmirr_base_0/rf_pfet_01v8_aM02W3p00L0p15_5/GATE.n447 9
R100 vco_pmirr_base_0/rf_pfet_01v8_aM02W3p00L0p15_5/GATE.n455 vco_pmirr_base_0/rf_pfet_01v8_aM02W3p00L0p15_5/GATE.n454 9
R101 vco_pmirr_base_0/rf_pfet_01v8_aM02W3p00L0p15_5/GATE.n163 vco_pmirr_base_0/rf_pfet_01v8_aM02W3p00L0p15_5/GATE.n162 9
R102 vco_pmirr_base_0/rf_pfet_01v8_aM02W3p00L0p15_5/GATE.n170 vco_pmirr_base_0/rf_pfet_01v8_aM02W3p00L0p15_5/GATE.n169 9
R103 vco_pmirr_base_0/rf_pfet_01v8_aM02W3p00L0p15_5/GATE.n395 vco_pmirr_base_0/rf_pfet_01v8_aM02W3p00L0p15_5/GATE.n394 9
R104 vco_pmirr_base_0/rf_pfet_01v8_aM02W3p00L0p15_5/GATE.n402 vco_pmirr_base_0/rf_pfet_01v8_aM02W3p00L0p15_5/GATE.n401 9
R105 vco_pmirr_base_0/rf_pfet_01v8_aM02W3p00L0p15_5/GATE.n501 vco_pmirr_base_0/rf_pfet_01v8_aM02W3p00L0p15_5/GATE.n500 9
R106 vco_pmirr_base_0/rf_pfet_01v8_aM02W3p00L0p15_5/GATE.n508 vco_pmirr_base_0/rf_pfet_01v8_aM02W3p00L0p15_5/GATE.n507 9
R107 vco_pmirr_base_0/rf_pfet_01v8_aM02W3p00L0p15_5/GATE.n267 vco_pmirr_base_0/rf_pfet_01v8_aM02W3p00L0p15_5/GATE.n266 9
R108 vco_pmirr_base_0/rf_pfet_01v8_aM02W3p00L0p15_5/GATE.n274 vco_pmirr_base_0/rf_pfet_01v8_aM02W3p00L0p15_5/GATE.n273 9
R109 vco_pmirr_base_0/rf_pfet_01v8_aM02W3p00L0p15_5/GATE.n122 vco_pmirr_base_0/rf_pfet_01v8_aM02W3p00L0p15_5/GATE.n121 9
R110 vco_pmirr_base_0/rf_pfet_01v8_aM02W3p00L0p15_5/GATE.n127 vco_pmirr_base_0/rf_pfet_01v8_aM02W3p00L0p15_5/GATE.n126 9
R111 vco_pmirr_base_0/rf_pfet_01v8_aM02W3p00L0p15_5/GATE.n356 vco_pmirr_base_0/rf_pfet_01v8_aM02W3p00L0p15_5/GATE.n355 9
R112 vco_pmirr_base_0/rf_pfet_01v8_aM02W3p00L0p15_5/GATE.n359 vco_pmirr_base_0/rf_pfet_01v8_aM02W3p00L0p15_5/GATE.n358 9
R113 vco_pmirr_base_0/rf_pfet_01v8_aM02W3p00L0p15_5/GATE.n590 vco_pmirr_base_0/rf_pfet_01v8_aM02W3p00L0p15_5/GATE.n589 9
R114 vco_pmirr_base_0/rf_pfet_01v8_aM02W3p00L0p15_5/GATE.n595 vco_pmirr_base_0/rf_pfet_01v8_aM02W3p00L0p15_5/GATE.n594 9
R115 vco_pmirr_base_0/rf_pfet_01v8_aM02W3p00L0p15_5/GATE.n888 vco_pmirr_base_0/rf_pfet_01v8_aM02W3p00L0p15_5/GATE.n887 9
R116 vco_pmirr_base_0/rf_pfet_01v8_aM02W3p00L0p15_5/GATE.n893 vco_pmirr_base_0/rf_pfet_01v8_aM02W3p00L0p15_5/GATE.n892 9
R117 vco_pmirr_base_0/rf_pfet_01v8_aM02W3p00L0p15_5/GATE.n51 vco_pmirr_base_0/rf_pfet_01v8_aM02W3p00L0p15_5/GATE.n50 9
R118 vco_pmirr_base_0/rf_pfet_01v8_aM02W3p00L0p15_5/GATE.n65 vco_pmirr_base_0/rf_pfet_01v8_aM02W3p00L0p15_5/GATE.n64 9
R119 vco_pmirr_base_0/rf_pfet_01v8_aM02W3p00L0p15_5/GATE.n20 vco_pmirr_base_0/rf_pfet_01v8_aM02W3p00L0p15_5/GATE.n19 9
R120 vco_pmirr_base_0/rf_pfet_01v8_aM02W3p00L0p15_5/GATE.n34 vco_pmirr_base_0/rf_pfet_01v8_aM02W3p00L0p15_5/GATE.n33 9
R121 vco_pmirr_base_0/rf_pfet_01v8_aM02W3p00L0p15_5/GATE.n47 vco_pmirr_base_0/rf_pfet_01v8_aM02W3p00L0p15_5/GATE.n46 9
R122 vco_pmirr_base_0/rf_pfet_01v8_aM02W3p00L0p15_5/GATE.n62 vco_pmirr_base_0/rf_pfet_01v8_aM02W3p00L0p15_5/GATE.n61 8.764
R123 vco_pmirr_base_0/rf_pfet_01v8_aM02W3p00L0p15_5/GATE.n688 vco_pmirr_base_0/rf_pfet_01v8_aM02W3p00L0p15_5/GATE.n687 8.764
R124 vco_pmirr_base_0/rf_pfet_01v8_aM02W3p00L0p15_5/GATE.n741 vco_pmirr_base_0/rf_pfet_01v8_aM02W3p00L0p15_5/GATE.n740 8.764
R125 vco_pmirr_base_0/rf_pfet_01v8_aM02W3p00L0p15_5/GATE.n948 vco_pmirr_base_0/rf_pfet_01v8_aM02W3p00L0p15_5/GATE.n947 8.764
R126 vco_pmirr_base_0/rf_pfet_01v8_aM02W3p00L0p15_5/GATE.n635 vco_pmirr_base_0/rf_pfet_01v8_aM02W3p00L0p15_5/GATE.n634 8.764
R127 vco_pmirr_base_0/rf_pfet_01v8_aM02W3p00L0p15_5/GATE.n911 vco_pmirr_base_0/rf_pfet_01v8_aM02W3p00L0p15_5/GATE.n910 8.764
R128 vco_pmirr_base_0/rf_pfet_01v8_aM02W3p00L0p15_5/GATE.n986 vco_pmirr_base_0/rf_pfet_01v8_aM02W3p00L0p15_5/GATE.n985 8.764
R129 vco_pmirr_base_0/rf_pfet_01v8_aM02W3p00L0p15_5/GATE.n794 vco_pmirr_base_0/rf_pfet_01v8_aM02W3p00L0p15_5/GATE.n793 8.764
R130 vco_pmirr_base_0/rf_pfet_01v8_aM02W3p00L0p15_5/GATE.n219 vco_pmirr_base_0/rf_pfet_01v8_aM02W3p00L0p15_5/GATE.n218 8.764
R131 vco_pmirr_base_0/rf_pfet_01v8_aM02W3p00L0p15_5/GATE.n452 vco_pmirr_base_0/rf_pfet_01v8_aM02W3p00L0p15_5/GATE.n451 8.764
R132 vco_pmirr_base_0/rf_pfet_01v8_aM02W3p00L0p15_5/GATE.n167 vco_pmirr_base_0/rf_pfet_01v8_aM02W3p00L0p15_5/GATE.n166 8.764
R133 vco_pmirr_base_0/rf_pfet_01v8_aM02W3p00L0p15_5/GATE.n399 vco_pmirr_base_0/rf_pfet_01v8_aM02W3p00L0p15_5/GATE.n398 8.764
R134 vco_pmirr_base_0/rf_pfet_01v8_aM02W3p00L0p15_5/GATE.n505 vco_pmirr_base_0/rf_pfet_01v8_aM02W3p00L0p15_5/GATE.n504 8.764
R135 vco_pmirr_base_0/rf_pfet_01v8_aM02W3p00L0p15_5/GATE.n271 vco_pmirr_base_0/rf_pfet_01v8_aM02W3p00L0p15_5/GATE.n270 8.764
R136 vco_pmirr_base_0/rf_pfet_01v8_aM02W3p00L0p15_5/GATE.n124 vco_pmirr_base_0/rf_pfet_01v8_aM02W3p00L0p15_5/GATE.n123 8.764
R137 vco_pmirr_base_0/rf_pfet_01v8_aM02W3p00L0p15_5/GATE.n352 vco_pmirr_base_0/rf_pfet_01v8_aM02W3p00L0p15_5/GATE.n351 8.764
R138 vco_pmirr_base_0/rf_pfet_01v8_aM02W3p00L0p15_5/GATE.n592 vco_pmirr_base_0/rf_pfet_01v8_aM02W3p00L0p15_5/GATE.n591 8.764
R139 vco_pmirr_base_0/rf_pfet_01v8_aM02W3p00L0p15_5/GATE.n890 vco_pmirr_base_0/rf_pfet_01v8_aM02W3p00L0p15_5/GATE.n889 8.764
R140 vco_pmirr_base_0/rf_pfet_01v8_aM02W3p00L0p15_5/GATE.n6 vco_pmirr_base_0/rf_pfet_01v8_aM02W3p00L0p15_5/GATE.n5 7.816
R141 vco_pmirr_base_0/rf_pfet_01v8_aM02W3p00L0p15_5/GATE.n55 vco_pmirr_base_0/rf_pfet_01v8_aM02W3p00L0p15_5/GATE.n54 6.885
R142 vco_pmirr_base_0/rf_pfet_01v8_aM02W3p00L0p15_5/GATE.n696 vco_pmirr_base_0/rf_pfet_01v8_aM02W3p00L0p15_5/GATE.n695 6.885
R143 vco_pmirr_base_0/rf_pfet_01v8_aM02W3p00L0p15_5/GATE.n747 vco_pmirr_base_0/rf_pfet_01v8_aM02W3p00L0p15_5/GATE.n746 6.885
R144 vco_pmirr_base_0/rf_pfet_01v8_aM02W3p00L0p15_5/GATE.n965 vco_pmirr_base_0/rf_pfet_01v8_aM02W3p00L0p15_5/GATE.n964 6.885
R145 vco_pmirr_base_0/rf_pfet_01v8_aM02W3p00L0p15_5/GATE.n641 vco_pmirr_base_0/rf_pfet_01v8_aM02W3p00L0p15_5/GATE.n640 6.885
R146 vco_pmirr_base_0/rf_pfet_01v8_aM02W3p00L0p15_5/GATE.n927 vco_pmirr_base_0/rf_pfet_01v8_aM02W3p00L0p15_5/GATE.n926 6.885
R147 vco_pmirr_base_0/rf_pfet_01v8_aM02W3p00L0p15_5/GATE.n1001 vco_pmirr_base_0/rf_pfet_01v8_aM02W3p00L0p15_5/GATE.n1000 6.885
R148 vco_pmirr_base_0/rf_pfet_01v8_aM02W3p00L0p15_5/GATE.n802 vco_pmirr_base_0/rf_pfet_01v8_aM02W3p00L0p15_5/GATE.n801 6.885
R149 vco_pmirr_base_0/rf_pfet_01v8_aM02W3p00L0p15_5/GATE.n224 vco_pmirr_base_0/rf_pfet_01v8_aM02W3p00L0p15_5/GATE.n223 6.885
R150 vco_pmirr_base_0/rf_pfet_01v8_aM02W3p00L0p15_5/GATE.n460 vco_pmirr_base_0/rf_pfet_01v8_aM02W3p00L0p15_5/GATE.n459 6.885
R151 vco_pmirr_base_0/rf_pfet_01v8_aM02W3p00L0p15_5/GATE.n172 vco_pmirr_base_0/rf_pfet_01v8_aM02W3p00L0p15_5/GATE.n171 6.885
R152 vco_pmirr_base_0/rf_pfet_01v8_aM02W3p00L0p15_5/GATE.n407 vco_pmirr_base_0/rf_pfet_01v8_aM02W3p00L0p15_5/GATE.n406 6.885
R153 vco_pmirr_base_0/rf_pfet_01v8_aM02W3p00L0p15_5/GATE.n511 vco_pmirr_base_0/rf_pfet_01v8_aM02W3p00L0p15_5/GATE.n510 6.885
R154 vco_pmirr_base_0/rf_pfet_01v8_aM02W3p00L0p15_5/GATE.n278 vco_pmirr_base_0/rf_pfet_01v8_aM02W3p00L0p15_5/GATE.n277 6.885
R155 vco_pmirr_base_0/rf_pfet_01v8_aM02W3p00L0p15_5/GATE.n115 vco_pmirr_base_0/rf_pfet_01v8_aM02W3p00L0p15_5/GATE.n114 6.885
R156 vco_pmirr_base_0/rf_pfet_01v8_aM02W3p00L0p15_5/GATE.n95 vco_pmirr_base_0/rf_pfet_01v8_aM02W3p00L0p15_5/GATE.n94 6.885
R157 vco_pmirr_base_0/rf_pfet_01v8_aM02W3p00L0p15_5/GATE.n347 vco_pmirr_base_0/rf_pfet_01v8_aM02W3p00L0p15_5/GATE.n346 6.885
R158 vco_pmirr_base_0/rf_pfet_01v8_aM02W3p00L0p15_5/GATE.n329 vco_pmirr_base_0/rf_pfet_01v8_aM02W3p00L0p15_5/GATE.n328 6.885
R159 vco_pmirr_base_0/rf_pfet_01v8_aM02W3p00L0p15_5/GATE.n583 vco_pmirr_base_0/rf_pfet_01v8_aM02W3p00L0p15_5/GATE.n582 6.885
R160 vco_pmirr_base_0/rf_pfet_01v8_aM02W3p00L0p15_5/GATE.n563 vco_pmirr_base_0/rf_pfet_01v8_aM02W3p00L0p15_5/GATE.n562 6.885
R161 vco_pmirr_base_0/rf_pfet_01v8_aM02W3p00L0p15_5/GATE.n881 vco_pmirr_base_0/rf_pfet_01v8_aM02W3p00L0p15_5/GATE.n880 6.885
R162 vco_pmirr_base_0/rf_pfet_01v8_aM02W3p00L0p15_5/GATE.n863 vco_pmirr_base_0/rf_pfet_01v8_aM02W3p00L0p15_5/GATE.n862 6.885
R163 vco_pmirr_base_0/rf_pfet_01v8_aM02W3p00L0p15_5/GATE.n79 vco_pmirr_base_0/rf_pfet_01v8_aM02W3p00L0p15_5/GATE.t0 4.829
R164 vco_pmirr_base_0/rf_pfet_01v8_aM02W3p00L0p15_5/GATE.n63 vco_pmirr_base_0/rf_pfet_01v8_aM02W3p00L0p15_5/GATE.n62 4.65
R165 vco_pmirr_base_0/rf_pfet_01v8_aM02W3p00L0p15_5/GATE.n949 vco_pmirr_base_0/rf_pfet_01v8_aM02W3p00L0p15_5/GATE.n948 4.65
R166 vco_pmirr_base_0/rf_pfet_01v8_aM02W3p00L0p15_5/GATE.n912 vco_pmirr_base_0/rf_pfet_01v8_aM02W3p00L0p15_5/GATE.n911 4.65
R167 vco_pmirr_base_0/rf_pfet_01v8_aM02W3p00L0p15_5/GATE.n987 vco_pmirr_base_0/rf_pfet_01v8_aM02W3p00L0p15_5/GATE.n986 4.65
R168 vco_pmirr_base_0/rf_pfet_01v8_aM02W3p00L0p15_5/GATE.n125 vco_pmirr_base_0/rf_pfet_01v8_aM02W3p00L0p15_5/GATE.n124 4.65
R169 vco_pmirr_base_0/rf_pfet_01v8_aM02W3p00L0p15_5/GATE.n357 vco_pmirr_base_0/rf_pfet_01v8_aM02W3p00L0p15_5/GATE.n352 4.65
R170 vco_pmirr_base_0/rf_pfet_01v8_aM02W3p00L0p15_5/GATE.n593 vco_pmirr_base_0/rf_pfet_01v8_aM02W3p00L0p15_5/GATE.n592 4.65
R171 vco_pmirr_base_0/rf_pfet_01v8_aM02W3p00L0p15_5/GATE.n891 vco_pmirr_base_0/rf_pfet_01v8_aM02W3p00L0p15_5/GATE.n890 4.65
R172 vco_pmirr_base_0/rf_pfet_01v8_aM02W3p00L0p15_5/GATE.n1035 vco_pmirr_base_0/rf_pfet_01v8_aM02W3p00L0p15_5/GATE.n70 4.498
R173 vco_pmirr_base_0/rf_pfet_01v8_aM02W3p00L0p15_5/GATE.n1037 vco_pmirr_base_0/rf_pfet_01v8_aM02W3p00L0p15_5/GATE.n60 4.491
R174 vco_pmirr_base_0/rf_pfet_01v8_aM02W3p00L0p15_5/GATE.n1037 vco_pmirr_base_0/rf_pfet_01v8_aM02W3p00L0p15_5/GATE.n66 4.491
R175 vco_pmirr_base_0/rf_pfet_01v8_aM02W3p00L0p15_5/GATE.n698 vco_pmirr_base_0/rf_pfet_01v8_aM02W3p00L0p15_5/GATE.n697 4.452
R176 vco_pmirr_base_0/rf_pfet_01v8_aM02W3p00L0p15_5/GATE.n751 vco_pmirr_base_0/rf_pfet_01v8_aM02W3p00L0p15_5/GATE.n750 4.452
R177 vco_pmirr_base_0/rf_pfet_01v8_aM02W3p00L0p15_5/GATE.n645 vco_pmirr_base_0/rf_pfet_01v8_aM02W3p00L0p15_5/GATE.n644 4.452
R178 vco_pmirr_base_0/rf_pfet_01v8_aM02W3p00L0p15_5/GATE.n804 vco_pmirr_base_0/rf_pfet_01v8_aM02W3p00L0p15_5/GATE.n803 4.452
R179 vco_pmirr_base_0/rf_pfet_01v8_aM02W3p00L0p15_5/GATE.n462 vco_pmirr_base_0/rf_pfet_01v8_aM02W3p00L0p15_5/GATE.n461 4.452
R180 vco_pmirr_base_0/rf_pfet_01v8_aM02W3p00L0p15_5/GATE.n409 vco_pmirr_base_0/rf_pfet_01v8_aM02W3p00L0p15_5/GATE.n408 4.452
R181 vco_pmirr_base_0/rf_pfet_01v8_aM02W3p00L0p15_5/GATE.n515 vco_pmirr_base_0/rf_pfet_01v8_aM02W3p00L0p15_5/GATE.n514 4.452
R182 vco_pmirr_base_0/rf_pfet_01v8_aM02W3p00L0p15_5/GATE.n57 vco_pmirr_base_0/rf_pfet_01v8_aM02W3p00L0p15_5/GATE.n56 4.451
R183 vco_pmirr_base_0/rf_pfet_01v8_aM02W3p00L0p15_5/GATE.n228 vco_pmirr_base_0/rf_pfet_01v8_aM02W3p00L0p15_5/GATE.n227 4.451
R184 vco_pmirr_base_0/rf_pfet_01v8_aM02W3p00L0p15_5/GATE.n176 vco_pmirr_base_0/rf_pfet_01v8_aM02W3p00L0p15_5/GATE.n175 4.451
R185 vco_pmirr_base_0/rf_pfet_01v8_aM02W3p00L0p15_5/GATE.n280 vco_pmirr_base_0/rf_pfet_01v8_aM02W3p00L0p15_5/GATE.n279 4.451
R186 vco_pmirr_base_0/rf_pfet_01v8_aM02W3p00L0p15_5/GATE.n99 vco_pmirr_base_0/rf_pfet_01v8_aM02W3p00L0p15_5/GATE.n98 4.451
R187 vco_pmirr_base_0/rf_pfet_01v8_aM02W3p00L0p15_5/GATE.n331 vco_pmirr_base_0/rf_pfet_01v8_aM02W3p00L0p15_5/GATE.n330 4.451
R188 vco_pmirr_base_0/rf_pfet_01v8_aM02W3p00L0p15_5/GATE.n567 vco_pmirr_base_0/rf_pfet_01v8_aM02W3p00L0p15_5/GATE.n566 4.451
R189 vco_pmirr_base_0/rf_pfet_01v8_aM02W3p00L0p15_5/GATE.n865 vco_pmirr_base_0/rf_pfet_01v8_aM02W3p00L0p15_5/GATE.n864 4.451
R190 vco_pmirr_base_0/rf_pfet_01v8_aM02W3p00L0p15_5/GATE.n349 vco_pmirr_base_0/rf_pfet_01v8_aM02W3p00L0p15_5/GATE.n348 4.388
R191 vco_pmirr_base_0/rf_pfet_01v8_aM02W3p00L0p15_5/GATE.n117 vco_pmirr_base_0/rf_pfet_01v8_aM02W3p00L0p15_5/GATE.n116 4.387
R192 vco_pmirr_base_0/rf_pfet_01v8_aM02W3p00L0p15_5/GATE.n585 vco_pmirr_base_0/rf_pfet_01v8_aM02W3p00L0p15_5/GATE.n584 4.387
R193 vco_pmirr_base_0/rf_pfet_01v8_aM02W3p00L0p15_5/GATE.n883 vco_pmirr_base_0/rf_pfet_01v8_aM02W3p00L0p15_5/GATE.n882 4.387
R194 vco_pmirr_base_0/rf_pfet_01v8_aM02W3p00L0p15_5/GATE.n116 vco_pmirr_base_0/rf_pfet_01v8_aM02W3p00L0p15_5/GATE.n113 3.711
R195 vco_pmirr_base_0/rf_pfet_01v8_aM02W3p00L0p15_5/GATE.n348 vco_pmirr_base_0/rf_pfet_01v8_aM02W3p00L0p15_5/GATE.n345 3.711
R196 vco_pmirr_base_0/rf_pfet_01v8_aM02W3p00L0p15_5/GATE.n584 vco_pmirr_base_0/rf_pfet_01v8_aM02W3p00L0p15_5/GATE.n581 3.711
R197 vco_pmirr_base_0/rf_pfet_01v8_aM02W3p00L0p15_5/GATE.n882 vco_pmirr_base_0/rf_pfet_01v8_aM02W3p00L0p15_5/GATE.n879 3.711
R198 vco_pmirr_base_0/rf_pfet_01v8_aM02W3p00L0p15_5/GATE.n6 vco_pmirr_base_0/rf_pfet_01v8_aM02W3p00L0p15_5/GATE.n3 3.634
R199 vco_pmirr_base_0/rf_pfet_01v8_aM02W3p00L0p15_5/GATE.n56 vco_pmirr_base_0/rf_pfet_01v8_aM02W3p00L0p15_5/GATE.n53 3.335
R200 vco_pmirr_base_0/rf_pfet_01v8_aM02W3p00L0p15_5/GATE.n697 vco_pmirr_base_0/rf_pfet_01v8_aM02W3p00L0p15_5/GATE.n694 3.335
R201 vco_pmirr_base_0/rf_pfet_01v8_aM02W3p00L0p15_5/GATE.n750 vco_pmirr_base_0/rf_pfet_01v8_aM02W3p00L0p15_5/GATE.n749 3.335
R202 vco_pmirr_base_0/rf_pfet_01v8_aM02W3p00L0p15_5/GATE.n966 vco_pmirr_base_0/rf_pfet_01v8_aM02W3p00L0p15_5/GATE.n963 3.335
R203 vco_pmirr_base_0/rf_pfet_01v8_aM02W3p00L0p15_5/GATE.n644 vco_pmirr_base_0/rf_pfet_01v8_aM02W3p00L0p15_5/GATE.n643 3.335
R204 vco_pmirr_base_0/rf_pfet_01v8_aM02W3p00L0p15_5/GATE.n928 vco_pmirr_base_0/rf_pfet_01v8_aM02W3p00L0p15_5/GATE.n925 3.335
R205 vco_pmirr_base_0/rf_pfet_01v8_aM02W3p00L0p15_5/GATE.n1004 vco_pmirr_base_0/rf_pfet_01v8_aM02W3p00L0p15_5/GATE.n1003 3.335
R206 vco_pmirr_base_0/rf_pfet_01v8_aM02W3p00L0p15_5/GATE.n803 vco_pmirr_base_0/rf_pfet_01v8_aM02W3p00L0p15_5/GATE.n800 3.335